21/01/2025 00:00:00.000 | Info | CBot instance [HydrodynamicBot, EURUSD, m15] started.
21/01/2025 00:00:00.102 | Info | [00:00:00] ℹ️ INFO: ════════════════════════════════════════
21/01/2025 00:00:00.102 | Info | [00:00:00] ℹ️ INFO:  HydroDynamic Bot v9.1 - FIXED
21/01/2025 00:00:00.102 | Info | [00:00:00] ℹ️ INFO: ════════════════════════════════════════
21/01/2025 00:00:00.102 | Info | [00:00:00] ℹ️ INFO:  Symbol: EURUSD
21/01/2025 00:00:00.102 | Info | [00:00:00] ℹ️ INFO:  Timeframe: Minute15
21/01/2025 00:00:00.102 | Info | [00:00:00] ℹ️ INFO:  Trend Mode: Slope
21/01/2025 00:00:00.102 | Info | [00:00:00] ℹ️ INFO:  Trading: ON ✅
21/01/2025 00:00:00.102 | Info | [00:00:00] ℹ️ INFO:  Trigger: ON
21/01/2025 00:00:00.102 | Info | [00:00:00] ℹ️ INFO:  Toxicity Guard: ON
21/01/2025 00:00:00.102 | Info | [00:00:00] ℹ️ INFO:  Min SL: 15 pips
21/01/2025 00:00:00.102 | Info | [00:00:00] ℹ️ INFO: ════════════════════════════════════════
21/01/2025 00:00:00.102 | Info | [00:00:00] ℹ️ INFO: ⏳ Warming up indicators (Last 200 bars)...
21/01/2025 00:00:00.102 | Info | [00:00:00] ℹ️ INFO: ✅ Ready - 200 bars processed
21/01/2025 00:00:00.102 | Info | [00:00:00] ℹ️ INFO: 🚀 Bot started successfully!
21/01/2025 01:01:00.701 | Info | [01:01:00] ℹ️ INFO: ════════════════════════════════════════
21/01/2025 01:01:00.701 | Info | [01:01:00] ℹ️ INFO: ✅ TOXICITY GUARD READY
21/01/2025 01:01:00.701 | Info | [01:01:00] ℹ️ INFO: 📊 Baseline Spread: 0.1 pips
21/01/2025 01:01:00.701 | Info | [01:01:00] ℹ️ INFO: ════════════════════════════════════════
22/01/2025 04:00:00.801 | Info | [04:00:00] ℹ️ INFO: 🌀 CHAOS STARTED - Bar: 309, Price: 1.04120, FD: 1.662
22/01/2025 07:00:00.403 | Info | [07:00:00] ℹ️ INFO: 🔻 FRACTAL PEAK DETECTED - Bar: 318, Peak Price: 1.04112, Start Price: 1.04120, FD: 1.782
22/01/2025 07:00:00.403 | Info | [07:00:00] ℹ️ INFO: ════════════════════════════════════════
22/01/2025 07:00:00.403 | Info | [07:00:00] ℹ️ INFO: 🎯 SIGNAL DETECTED: REVERSAL (Price dropped against trend)
22/01/2025 07:00:00.403 | Info | [07:00:00] ℹ️ INFO:   Direction: Buy
22/01/2025 07:00:00.403 | Info | [07:00:00] ℹ️ INFO:   Trend: DOWN
22/01/2025 07:00:00.403 | Info | [07:00:00] ℹ️ INFO:   Peak Price: 1.04112
22/01/2025 07:00:00.403 | Info | [07:00:00] ℹ️ INFO:   Start Price: 1.04120
22/01/2025 07:00:00.403 | Info | [07:00:00] ℹ️ INFO:   Price Delta: -0.00008
22/01/2025 07:00:00.403 | Info | [07:00:00] ℹ️ INFO:   Peak FD: 1.782
22/01/2025 07:00:00.403 | Info | [07:00:00] ℹ️ INFO: ════════════════════════════════════════
22/01/2025 07:00:00.403 | Info | [07:00:00] ℹ️ INFO: ⏳ Waiting for TIP confirmation (Threshold: 1.1)...
22/01/2025 07:15:01.005 | Info | [07:15:01] ℹ️ INFO: ════════════════════════════════════════
22/01/2025 07:15:01.005 | Info | [07:15:01] ℹ️ INFO: 🎯 SIGNAL DETECTED: REVERSAL (Price dropped against trend)
22/01/2025 07:15:01.005 | Info | [07:15:01] ℹ️ INFO:   Direction: Buy
22/01/2025 07:15:01.005 | Info | [07:15:01] ℹ️ INFO:   Trend: DOWN
22/01/2025 07:15:01.005 | Info | [07:15:01] ℹ️ INFO:   Peak Price: 1.04112
22/01/2025 07:15:01.005 | Info | [07:15:01] ℹ️ INFO:   Start Price: 1.04120
22/01/2025 07:15:01.005 | Info | [07:15:01] ℹ️ INFO:   Price Delta: -0.00008
22/01/2025 07:15:01.005 | Info | [07:15:01] ℹ️ INFO:   Peak FD: 1.782
22/01/2025 07:15:01.005 | Info | [07:15:01] ℹ️ INFO: ════════════════════════════════════════
22/01/2025 07:15:01.005 | Info | [07:15:01] ℹ️ INFO: ⏳ Waiting for TIP confirmation (Threshold: 1.1)...
22/01/2025 07:15:03.303 | Info | [07:15:03] ℹ️ INFO: 🔥 TIP CONFIRMED - Z-Score: 1.47
22/01/2025 07:15:03.303 | Trade | Executing Market Order to Buy 279000 EURUSD (SL: 15)
22/01/2025 07:15:03.303 | Trade | → Executing Market Order to Buy 279000 EURUSD (SL: 15) SUCCEEDED, Position PID1
22/01/2025 07:15:03.303 | Info | [07:15:03] ℹ️ INFO: ════════════════════════════════════════
22/01/2025 07:15:03.303 | Info | [07:15:03] ℹ️ INFO: 🚀 TRADE EXECUTED - TIP Triggered
22/01/2025 07:15:03.303 | Info | [07:15:03] ℹ️ INFO: Position: 1
22/01/2025 07:15:03.303 | Info | [07:15:03] ℹ️ INFO: Direction: Buy
22/01/2025 07:15:03.303 | Info | [07:15:03] ℹ️ INFO: Entry: 1.04128
22/01/2025 07:15:03.303 | Info | [07:15:03] ℹ️ INFO: Volume: 279.00 lots
22/01/2025 07:15:03.303 | Info | [07:15:03] ℹ️ INFO: Stop: 15.0 pips (Min: 15)
22/01/2025 07:15:03.303 | Info | [07:15:03] ℹ️ INFO: Risk: $360.00
22/01/2025 07:15:03.303 | Info | [07:15:03] ℹ️ INFO: TP1: 1.04214
22/01/2025 07:15:03.303 | Info | [07:15:03] ℹ️ INFO: TP2: 1.04446
22/01/2025 07:15:03.303 | Info | [07:15:03] ℹ️ INFO: P-Zero: 1.04214
22/01/2025 07:15:03.303 | Info | [07:15:03] ℹ️ INFO: Stretch: 8.6 pips
22/01/2025 07:15:03.303 | Info | [07:15:03] ℹ️ INFO: ════════════════════════════════════════
22/01/2025 07:30:01.604 | Info | [07:30:01] ℹ️ INFO: 🌀 CHAOS STARTED - Bar: 323, Price: 1.04166, FD: 1.792
22/01/2025 07:45:02.704 | Info | [07:45:02] ℹ️ INFO: 🔄 TREND REVERSAL - Pos 1
22/01/2025 07:45:02.704 | Trade | Closing position PID1 (Volume: 279000)
22/01/2025 07:45:02.704 | Trade | → Closing position PID1 (Volume: 279000) SUCCEEDED
22/01/2025 07:45:02.704 | Info | [07:45:02] ℹ️ INFO: ✅ Closed 1
22/01/2025 07:45:02.704 | Info | [07:45:02] ℹ️ INFO: ════════════════════════════════════════
22/01/2025 07:45:02.704 | Info | [07:45:02] ℹ️ INFO: 📊 POSITION CLOSED
22/01/2025 07:45:02.704 | Info | [07:45:02] ℹ️ INFO: ID: 1
22/01/2025 07:45:02.704 | Info | [07:45:02] ℹ️ INFO: Direction: Buy
22/01/2025 07:45:02.704 | Info | [07:45:02] ℹ️ INFO: Entry: 1.04128
22/01/2025 07:45:02.704 | Info | [07:45:02] ℹ️ INFO: P&L: $98.38
22/01/2025 07:45:02.704 | Info | [07:45:02] ℹ️ INFO: Pips: 5.0
22/01/2025 07:45:02.704 | Info | [07:45:02] ℹ️ INFO: Reason: Closed
22/01/2025 07:45:02.704 | Info | [07:45:02] ℹ️ INFO: ════════════════════════════════════════
22/01/2025 08:15:00.206 | Info | [08:15:00] ℹ️ INFO: 🔻 FRACTAL PEAK DETECTED - Bar: 323, Peak Price: 1.04174, Start Price: 1.04166, FD: 1.792
22/01/2025 08:15:00.206 | Info | [08:15:00] ℹ️ INFO: ════════════════════════════════════════
22/01/2025 08:15:00.206 | Info | [08:15:00] ℹ️ INFO: 🎯 SIGNAL DETECTED: REVERSAL (Price spiked against trend)
22/01/2025 08:15:00.206 | Info | [08:15:00] ℹ️ INFO:   Direction: Sell
22/01/2025 08:15:00.206 | Info | [08:15:00] ℹ️ INFO:   Trend: UP
22/01/2025 08:15:00.206 | Info | [08:15:00] ℹ️ INFO:   Peak Price: 1.04174
22/01/2025 08:15:00.206 | Info | [08:15:00] ℹ️ INFO:   Start Price: 1.04166
22/01/2025 08:15:00.206 | Info | [08:15:00] ℹ️ INFO:   Price Delta: 0.00008
22/01/2025 08:15:00.206 | Info | [08:15:00] ℹ️ INFO:   Peak FD: 1.792
22/01/2025 08:15:00.206 | Info | [08:15:00] ℹ️ INFO: ════════════════════════════════════════
22/01/2025 08:15:00.206 | Info | [08:15:00] ℹ️ INFO: ⏳ Waiting for TIP confirmation (Threshold: 1.1)...
22/01/2025 08:30:00.203 | Info | [08:30:00] ℹ️ INFO: ════════════════════════════════════════
22/01/2025 08:30:00.203 | Info | [08:30:00] ℹ️ INFO: 🎯 SIGNAL DETECTED: REVERSAL (Price spiked against trend)
22/01/2025 08:30:00.203 | Info | [08:30:00] ℹ️ INFO:   Direction: Sell
22/01/2025 08:30:00.203 | Info | [08:30:00] ℹ️ INFO:   Trend: UP
22/01/2025 08:30:00.203 | Info | [08:30:00] ℹ️ INFO:   Peak Price: 1.04174
22/01/2025 08:30:00.203 | Info | [08:30:00] ℹ️ INFO:   Start Price: 1.04166
22/01/2025 08:30:00.203 | Info | [08:30:00] ℹ️ INFO:   Price Delta: 0.00008
22/01/2025 08:30:00.203 | Info | [08:30:00] ℹ️ INFO:   Peak FD: 1.792
22/01/2025 08:30:00.203 | Info | [08:30:00] ℹ️ INFO: ════════════════════════════════════════
22/01/2025 08:30:00.203 | Info | [08:30:00] ℹ️ INFO: ⏳ Waiting for TIP confirmation (Threshold: 1.1)...
22/01/2025 08:45:00.007 | Info | [08:45:00] ℹ️ INFO: ════════════════════════════════════════
22/01/2025 08:45:00.007 | Info | [08:45:00] ℹ️ INFO: 🎯 SIGNAL DETECTED: REVERSAL (Price spiked against trend)
22/01/2025 08:45:00.007 | Info | [08:45:00] ℹ️ INFO:   Direction: Sell
22/01/2025 08:45:00.007 | Info | [08:45:00] ℹ️ INFO:   Trend: UP
22/01/2025 08:45:00.007 | Info | [08:45:00] ℹ️ INFO:   Peak Price: 1.04174
22/01/2025 08:45:00.007 | Info | [08:45:00] ℹ️ INFO:   Start Price: 1.04166
22/01/2025 08:45:00.007 | Info | [08:45:00] ℹ️ INFO:   Price Delta: 0.00008
22/01/2025 08:45:00.007 | Info | [08:45:00] ℹ️ INFO:   Peak FD: 1.792
22/01/2025 08:45:00.007 | Info | [08:45:00] ℹ️ INFO: ════════════════════════════════════════
22/01/2025 08:45:00.007 | Info | [08:45:00] ℹ️ INFO: ⏳ Waiting for TIP confirmation (Threshold: 1.1)...
22/01/2025 09:00:00.505 | Info | [09:00:00] ℹ️ INFO: ════════════════════════════════════════
22/01/2025 09:00:00.505 | Info | [09:00:00] ℹ️ INFO: 🎯 SIGNAL DETECTED: REVERSAL (Price spiked against trend)
22/01/2025 09:00:00.505 | Info | [09:00:00] ℹ️ INFO:   Direction: Sell
22/01/2025 09:00:00.505 | Info | [09:00:00] ℹ️ INFO:   Trend: UP
22/01/2025 09:00:00.505 | Info | [09:00:00] ℹ️ INFO:   Peak Price: 1.04174
22/01/2025 09:00:00.505 | Info | [09:00:00] ℹ️ INFO:   Start Price: 1.04166
22/01/2025 09:00:00.505 | Info | [09:00:00] ℹ️ INFO:   Price Delta: 0.00008
22/01/2025 09:00:00.505 | Info | [09:00:00] ℹ️ INFO:   Peak FD: 1.792
22/01/2025 09:00:00.505 | Info | [09:00:00] ℹ️ INFO: ════════════════════════════════════════
22/01/2025 09:00:00.505 | Info | [09:00:00] ℹ️ INFO: ⏳ Waiting for TIP confirmation (Threshold: 1.1)...
22/01/2025 09:15:00.602 | Info | [09:15:00] ℹ️ INFO: ════════════════════════════════════════
22/01/2025 09:15:00.602 | Info | [09:15:00] ℹ️ INFO: 🎯 SIGNAL DETECTED: REVERSAL (Price spiked against trend)
22/01/2025 09:15:00.602 | Info | [09:15:00] ℹ️ INFO:   Direction: Sell
22/01/2025 09:15:00.602 | Info | [09:15:00] ℹ️ INFO:   Trend: UP
22/01/2025 09:15:00.602 | Info | [09:15:00] ℹ️ INFO:   Peak Price: 1.04174
22/01/2025 09:15:00.602 | Info | [09:15:00] ℹ️ INFO:   Start Price: 1.04166
22/01/2025 09:15:00.602 | Info | [09:15:00] ℹ️ INFO:   Price Delta: 0.00008
22/01/2025 09:15:00.602 | Info | [09:15:00] ℹ️ INFO:   Peak FD: 1.792
22/01/2025 09:15:00.602 | Info | [09:15:00] ℹ️ INFO: ════════════════════════════════════════
22/01/2025 09:15:00.602 | Info | [09:15:00] ℹ️ INFO: ⏳ Waiting for TIP confirmation (Threshold: 1.1)...
22/01/2025 09:30:01.306 | Info | [09:30:01] ℹ️ INFO: ════════════════════════════════════════
22/01/2025 09:30:01.306 | Info | [09:30:01] ℹ️ INFO: 🎯 SIGNAL DETECTED: REVERSAL (Price spiked against trend)
22/01/2025 09:30:01.306 | Info | [09:30:01] ℹ️ INFO:   Direction: Sell
22/01/2025 09:30:01.306 | Info | [09:30:01] ℹ️ INFO:   Trend: UP
22/01/2025 09:30:01.306 | Info | [09:30:01] ℹ️ INFO:   Peak Price: 1.04174
22/01/2025 09:30:01.306 | Info | [09:30:01] ℹ️ INFO:   Start Price: 1.04166
22/01/2025 09:30:01.306 | Info | [09:30:01] ℹ️ INFO:   Price Delta: 0.00008
22/01/2025 09:30:01.306 | Info | [09:30:01] ℹ️ INFO:   Peak FD: 1.792
22/01/2025 09:30:01.306 | Info | [09:30:01] ℹ️ INFO: ════════════════════════════════════════
22/01/2025 09:30:01.306 | Info | [09:30:01] ℹ️ INFO: ⏳ Waiting for TIP confirmation (Threshold: 1.1)...
22/01/2025 09:30:02.603 | Info | [09:30:02] ℹ️ INFO: 🔥 TIP CONFIRMED - Z-Score: 1.30
22/01/2025 09:30:02.603 | Trade | Executing Market Order to Sell 250000 EURUSD (SL: 16.9)
22/01/2025 09:30:02.603 | Trade | → Executing Market Order to Sell 250000 EURUSD (SL: 16.9) SUCCEEDED, Position PID2
22/01/2025 09:30:02.603 | Info | [09:30:02] ℹ️ INFO: ════════════════════════════════════════
22/01/2025 09:30:02.603 | Info | [09:30:02] ℹ️ INFO: 🚀 TRADE EXECUTED - TIP Triggered
22/01/2025 09:30:02.603 | Info | [09:30:02] ℹ️ INFO: Position: 2
22/01/2025 09:30:02.603 | Info | [09:30:02] ℹ️ INFO: Direction: Sell
22/01/2025 09:30:02.603 | Info | [09:30:02] ℹ️ INFO: Entry: 1.04324
22/01/2025 09:30:02.603 | Info | [09:30:02] ℹ️ INFO: Volume: 250.00 lots
22/01/2025 09:30:02.603 | Info | [09:30:02] ℹ️ INFO: Stop: 16.9 pips (Min: 15)
22/01/2025 09:30:02.603 | Info | [09:30:02] ℹ️ INFO: Risk: $363.54
22/01/2025 09:30:02.603 | Info | [09:30:02] ℹ️ INFO: TP1: 1.03998
22/01/2025 09:30:02.603 | Info | [09:30:02] ℹ️ INFO: TP2: 1.03118
22/01/2025 09:30:02.603 | Info | [09:30:02] ℹ️ INFO: P-Zero: 1.03998
22/01/2025 09:30:02.603 | Info | [09:30:02] ℹ️ INFO: Stretch: 32.6 pips
22/01/2025 09:30:02.603 | Info | [09:30:02] ℹ️ INFO: ════════════════════════════════════════
22/01/2025 09:45:00.300 | Info | [09:45:00] ℹ️ INFO: 🌀 CHAOS STARTED - Bar: 332, Price: 1.04362, FD: 1.771
22/01/2025 10:06:06.806 | Info | [10:06:06] ℹ️ INFO: ════════════════════════════════════════
22/01/2025 10:06:06.806 | Info | [10:06:06] ℹ️ INFO: 📊 POSITION CLOSED
22/01/2025 10:06:06.806 | Info | [10:06:06] ℹ️ INFO: ID: 2
22/01/2025 10:06:06.806 | Info | [10:06:06] ℹ️ INFO: Direction: Sell
22/01/2025 10:06:06.806 | Info | [10:06:06] ℹ️ INFO: Entry: 1.04324
22/01/2025 10:06:06.806 | Info | [10:06:06] ℹ️ INFO: P&L: $-382.75
22/01/2025 10:06:06.806 | Info | [10:06:06] ℹ️ INFO: Pips: -16.9
22/01/2025 10:06:06.806 | Info | [10:06:06] ℹ️ INFO: Reason: StopLoss
22/01/2025 10:06:06.806 | Info | [10:06:06] ℹ️ INFO: ════════════════════════════════════════
23/01/2025 03:15:01.202 | Info | [03:15:01] ℹ️ INFO: 🔻 FRACTAL PEAK DETECTED - Bar: 397, Peak Price: 1.04040, Start Price: 1.04362, FD: 1.667
23/01/2025 03:15:01.202 | Info | [03:15:01] ℹ️ INFO: ════════════════════════════════════════
23/01/2025 03:15:01.202 | Info | [03:15:01] ℹ️ INFO: 🎯 SIGNAL DETECTED: REVERSAL (Price dropped against trend)
23/01/2025 03:15:01.202 | Info | [03:15:01] ℹ️ INFO:   Direction: Buy
23/01/2025 03:15:01.202 | Info | [03:15:01] ℹ️ INFO:   Trend: DOWN
23/01/2025 03:15:01.202 | Info | [03:15:01] ℹ️ INFO:   Peak Price: 1.04040
23/01/2025 03:15:01.202 | Info | [03:15:01] ℹ️ INFO:   Start Price: 1.04362
23/01/2025 03:15:01.202 | Info | [03:15:01] ℹ️ INFO:   Price Delta: -0.00322
23/01/2025 03:15:01.202 | Info | [03:15:01] ℹ️ INFO:   Peak FD: 1.667
23/01/2025 03:15:01.202 | Info | [03:15:01] ℹ️ INFO: ════════════════════════════════════════
23/01/2025 03:15:01.202 | Info | [03:15:01] ℹ️ INFO: ⏳ Waiting for TIP confirmation (Threshold: 1.1)...
23/01/2025 03:30:00.303 | Info | [03:30:00] ℹ️ INFO: ════════════════════════════════════════
23/01/2025 03:30:00.303 | Info | [03:30:00] ℹ️ INFO: 🎯 SIGNAL DETECTED: REVERSAL (Price dropped against trend)
23/01/2025 03:30:00.303 | Info | [03:30:00] ℹ️ INFO:   Direction: Buy
23/01/2025 03:30:00.303 | Info | [03:30:00] ℹ️ INFO:   Trend: DOWN
23/01/2025 03:30:00.303 | Info | [03:30:00] ℹ️ INFO:   Peak Price: 1.04040
23/01/2025 03:30:00.303 | Info | [03:30:00] ℹ️ INFO:   Start Price: 1.04362
23/01/2025 03:30:00.303 | Info | [03:30:00] ℹ️ INFO:   Price Delta: -0.00322
23/01/2025 03:30:00.303 | Info | [03:30:00] ℹ️ INFO:   Peak FD: 1.667
23/01/2025 03:30:00.303 | Info | [03:30:00] ℹ️ INFO: ════════════════════════════════════════
23/01/2025 03:30:00.303 | Info | [03:30:00] ℹ️ INFO: ⏳ Waiting for TIP confirmation (Threshold: 1.1)...
23/01/2025 03:45:00.302 | Info | [03:45:00] ℹ️ INFO: ════════════════════════════════════════
23/01/2025 03:45:00.302 | Info | [03:45:00] ℹ️ INFO: 🎯 SIGNAL DETECTED: REVERSAL (Price dropped against trend)
23/01/2025 03:45:00.302 | Info | [03:45:00] ℹ️ INFO:   Direction: Buy
23/01/2025 03:45:00.302 | Info | [03:45:00] ℹ️ INFO:   Trend: DOWN
23/01/2025 03:45:00.302 | Info | [03:45:00] ℹ️ INFO:   Peak Price: 1.04040
23/01/2025 03:45:00.302 | Info | [03:45:00] ℹ️ INFO:   Start Price: 1.04362
23/01/2025 03:45:00.302 | Info | [03:45:00] ℹ️ INFO:   Price Delta: -0.00322
23/01/2025 03:45:00.302 | Info | [03:45:00] ℹ️ INFO:   Peak FD: 1.667
23/01/2025 03:45:00.302 | Info | [03:45:00] ℹ️ INFO: ════════════════════════════════════════
23/01/2025 03:45:00.302 | Info | [03:45:00] ℹ️ INFO: ⏳ Waiting for TIP confirmation (Threshold: 1.1)...
23/01/2025 04:00:05.502 | Info | [04:00:05] ℹ️ INFO: ════════════════════════════════════════
23/01/2025 04:00:05.502 | Info | [04:00:05] ℹ️ INFO: 🎯 SIGNAL DETECTED: CORRECTION (Price dropped)
23/01/2025 04:00:05.502 | Info | [04:00:05] ℹ️ INFO:   Direction: Buy
23/01/2025 04:00:05.502 | Info | [04:00:05] ℹ️ INFO:   Trend: UP
23/01/2025 04:00:05.502 | Info | [04:00:05] ℹ️ INFO:   Peak Price: 1.04040
23/01/2025 04:00:05.502 | Info | [04:00:05] ℹ️ INFO:   Start Price: 1.04362
23/01/2025 04:00:05.502 | Info | [04:00:05] ℹ️ INFO:   Price Delta: -0.00322
23/01/2025 04:00:05.502 | Info | [04:00:05] ℹ️ INFO:   Peak FD: 1.667
23/01/2025 04:00:05.502 | Info | [04:00:05] ℹ️ INFO: ════════════════════════════════════════
23/01/2025 04:00:05.502 | Info | [04:00:05] ℹ️ INFO: ⏳ Waiting for TIP confirmation (Threshold: 1.1)...
23/01/2025 04:15:00.702 | Info | [04:15:00] ℹ️ INFO: ════════════════════════════════════════
23/01/2025 04:15:00.702 | Info | [04:15:00] ℹ️ INFO: 🎯 SIGNAL DETECTED: CORRECTION (Price dropped)
23/01/2025 04:15:00.702 | Info | [04:15:00] ℹ️ INFO:   Direction: Buy
23/01/2025 04:15:00.702 | Info | [04:15:00] ℹ️ INFO:   Trend: UP
23/01/2025 04:15:00.702 | Info | [04:15:00] ℹ️ INFO:   Peak Price: 1.04040
23/01/2025 04:15:00.702 | Info | [04:15:00] ℹ️ INFO:   Start Price: 1.04362
23/01/2025 04:15:00.702 | Info | [04:15:00] ℹ️ INFO:   Price Delta: -0.00322
23/01/2025 04:15:00.702 | Info | [04:15:00] ℹ️ INFO:   Peak FD: 1.667
23/01/2025 04:15:00.702 | Info | [04:15:00] ℹ️ INFO: ════════════════════════════════════════
23/01/2025 04:15:00.702 | Info | [04:15:00] ℹ️ INFO: ⏳ Waiting for TIP confirmation (Threshold: 1.1)...
23/01/2025 04:30:00.003 | Info | [04:30:00] ℹ️ INFO: ════════════════════════════════════════
23/01/2025 04:30:00.003 | Info | [04:30:00] ℹ️ INFO: 🎯 SIGNAL DETECTED: CORRECTION (Price dropped)
23/01/2025 04:30:00.003 | Info | [04:30:00] ℹ️ INFO:   Direction: Buy
23/01/2025 04:30:00.003 | Info | [04:30:00] ℹ️ INFO:   Trend: UP
23/01/2025 04:30:00.003 | Info | [04:30:00] ℹ️ INFO:   Peak Price: 1.04040
23/01/2025 04:30:00.003 | Info | [04:30:00] ℹ️ INFO:   Start Price: 1.04362
23/01/2025 04:30:00.003 | Info | [04:30:00] ℹ️ INFO:   Price Delta: -0.00322
23/01/2025 04:30:00.003 | Info | [04:30:00] ℹ️ INFO:   Peak FD: 1.667
23/01/2025 04:30:00.003 | Info | [04:30:00] ℹ️ INFO: ════════════════════════════════════════
23/01/2025 04:30:00.003 | Info | [04:30:00] ℹ️ INFO: ⏳ Waiting for TIP confirmation (Threshold: 1.1)...
23/01/2025 04:45:17.603 | Info | [04:45:17] ℹ️ INFO: ════════════════════════════════════════
23/01/2025 04:45:17.603 | Info | [04:45:17] ℹ️ INFO: 🎯 SIGNAL DETECTED: CORRECTION (Price dropped)
23/01/2025 04:45:17.603 | Info | [04:45:17] ℹ️ INFO:   Direction: Buy
23/01/2025 04:45:17.603 | Info | [04:45:17] ℹ️ INFO:   Trend: UP
23/01/2025 04:45:17.603 | Info | [04:45:17] ℹ️ INFO:   Peak Price: 1.04040
23/01/2025 04:45:17.603 | Info | [04:45:17] ℹ️ INFO:   Start Price: 1.04362
23/01/2025 04:45:17.603 | Info | [04:45:17] ℹ️ INFO:   Price Delta: -0.00322
23/01/2025 04:45:17.603 | Info | [04:45:17] ℹ️ INFO:   Peak FD: 1.667
23/01/2025 04:45:17.603 | Info | [04:45:17] ℹ️ INFO: ════════════════════════════════════════
23/01/2025 04:45:17.603 | Info | [04:45:17] ℹ️ INFO: ⏳ Waiting for TIP confirmation (Threshold: 1.1)...
23/01/2025 05:00:00.303 | Info | [05:00:00] ℹ️ INFO: ════════════════════════════════════════
23/01/2025 05:00:00.303 | Info | [05:00:00] ℹ️ INFO: 🎯 SIGNAL DETECTED: CORRECTION (Price dropped)
23/01/2025 05:00:00.303 | Info | [05:00:00] ℹ️ INFO:   Direction: Buy
23/01/2025 05:00:00.303 | Info | [05:00:00] ℹ️ INFO:   Trend: UP
23/01/2025 05:00:00.303 | Info | [05:00:00] ℹ️ INFO:   Peak Price: 1.04040
23/01/2025 05:00:00.303 | Info | [05:00:00] ℹ️ INFO:   Start Price: 1.04362
23/01/2025 05:00:00.303 | Info | [05:00:00] ℹ️ INFO:   Price Delta: -0.00322
23/01/2025 05:00:00.303 | Info | [05:00:00] ℹ️ INFO:   Peak FD: 1.667
23/01/2025 05:00:00.303 | Info | [05:00:00] ℹ️ INFO: ════════════════════════════════════════
23/01/2025 05:00:00.303 | Info | [05:00:00] ℹ️ INFO: ⏳ Waiting for TIP confirmation (Threshold: 1.1)...
23/01/2025 05:15:02.907 | Info | [05:15:02] ℹ️ INFO: ════════════════════════════════════════
23/01/2025 05:15:02.907 | Info | [05:15:02] ℹ️ INFO: 🎯 SIGNAL DETECTED: CORRECTION (Price dropped)
23/01/2025 05:15:02.907 | Info | [05:15:02] ℹ️ INFO:   Direction: Buy
23/01/2025 05:15:02.907 | Info | [05:15:02] ℹ️ INFO:   Trend: UP
23/01/2025 05:15:02.907 | Info | [05:15:02] ℹ️ INFO:   Peak Price: 1.04040
23/01/2025 05:15:02.907 | Info | [05:15:02] ℹ️ INFO:   Start Price: 1.04362
23/01/2025 05:15:02.907 | Info | [05:15:02] ℹ️ INFO:   Price Delta: -0.00322
23/01/2025 05:15:02.907 | Info | [05:15:02] ℹ️ INFO:   Peak FD: 1.667
23/01/2025 05:15:02.907 | Info | [05:15:02] ℹ️ INFO: ════════════════════════════════════════
23/01/2025 05:15:02.907 | Info | [05:15:02] ℹ️ INFO: ⏳ Waiting for TIP confirmation (Threshold: 1.1)...
23/01/2025 05:30:01.402 | Info | [05:30:01] ℹ️ INFO: ════════════════════════════════════════
23/01/2025 05:30:01.402 | Info | [05:30:01] ℹ️ INFO: 🎯 SIGNAL DETECTED: CORRECTION (Price dropped)
23/01/2025 05:30:01.402 | Info | [05:30:01] ℹ️ INFO:   Direction: Buy
23/01/2025 05:30:01.402 | Info | [05:30:01] ℹ️ INFO:   Trend: UP
23/01/2025 05:30:01.402 | Info | [05:30:01] ℹ️ INFO:   Peak Price: 1.04040
23/01/2025 05:30:01.402 | Info | [05:30:01] ℹ️ INFO:   Start Price: 1.04362
23/01/2025 05:30:01.402 | Info | [05:30:01] ℹ️ INFO:   Price Delta: -0.00322
23/01/2025 05:30:01.402 | Info | [05:30:01] ℹ️ INFO:   Peak FD: 1.667
23/01/2025 05:30:01.402 | Info | [05:30:01] ℹ️ INFO: ════════════════════════════════════════
23/01/2025 05:30:01.402 | Info | [05:30:01] ℹ️ INFO: ⏳ Waiting for TIP confirmation (Threshold: 1.1)...
23/01/2025 05:45:01.604 | Info | [05:45:01] ℹ️ INFO: ════════════════════════════════════════
23/01/2025 05:45:01.604 | Info | [05:45:01] ℹ️ INFO: 🎯 SIGNAL DETECTED: REVERSAL (Price dropped against trend)
23/01/2025 05:45:01.604 | Info | [05:45:01] ℹ️ INFO:   Direction: Buy
23/01/2025 05:45:01.604 | Info | [05:45:01] ℹ️ INFO:   Trend: DOWN
23/01/2025 05:45:01.604 | Info | [05:45:01] ℹ️ INFO:   Peak Price: 1.04040
23/01/2025 05:45:01.604 | Info | [05:45:01] ℹ️ INFO:   Start Price: 1.04362
23/01/2025 05:45:01.604 | Info | [05:45:01] ℹ️ INFO:   Price Delta: -0.00322
23/01/2025 05:45:01.604 | Info | [05:45:01] ℹ️ INFO:   Peak FD: 1.667
23/01/2025 05:45:01.604 | Info | [05:45:01] ℹ️ INFO: ════════════════════════════════════════
23/01/2025 05:45:01.604 | Info | [05:45:01] ℹ️ INFO: ⏳ Waiting for TIP confirmation (Threshold: 1.1)...
23/01/2025 06:00:01.624 | Info | [06:00:01] ℹ️ INFO: ════════════════════════════════════════
23/01/2025 06:00:01.624 | Info | [06:00:01] ℹ️ INFO: 🎯 SIGNAL DETECTED: REVERSAL (Price dropped against trend)
23/01/2025 06:00:01.624 | Info | [06:00:01] ℹ️ INFO:   Direction: Buy
23/01/2025 06:00:01.624 | Info | [06:00:01] ℹ️ INFO:   Trend: DOWN
23/01/2025 06:00:01.624 | Info | [06:00:01] ℹ️ INFO:   Peak Price: 1.04040
23/01/2025 06:00:01.624 | Info | [06:00:01] ℹ️ INFO:   Start Price: 1.04362
23/01/2025 06:00:01.624 | Info | [06:00:01] ℹ️ INFO:   Price Delta: -0.00322
23/01/2025 06:00:01.624 | Info | [06:00:01] ℹ️ INFO:   Peak FD: 1.667
23/01/2025 06:00:01.624 | Info | [06:00:01] ℹ️ INFO: ════════════════════════════════════════
23/01/2025 06:00:01.624 | Info | [06:00:01] ℹ️ INFO: ⏳ Waiting for TIP confirmation (Threshold: 1.1)...
23/01/2025 06:15:04.102 | Info | [06:15:04] ℹ️ INFO: ════════════════════════════════════════
23/01/2025 06:15:04.102 | Info | [06:15:04] ℹ️ INFO: 🎯 SIGNAL DETECTED: REVERSAL (Price dropped against trend)
23/01/2025 06:15:04.102 | Info | [06:15:04] ℹ️ INFO:   Direction: Buy
23/01/2025 06:15:04.102 | Info | [06:15:04] ℹ️ INFO:   Trend: DOWN
23/01/2025 06:15:04.102 | Info | [06:15:04] ℹ️ INFO:   Peak Price: 1.04040
23/01/2025 06:15:04.102 | Info | [06:15:04] ℹ️ INFO:   Start Price: 1.04362
23/01/2025 06:15:04.102 | Info | [06:15:04] ℹ️ INFO:   Price Delta: -0.00322
23/01/2025 06:15:04.102 | Info | [06:15:04] ℹ️ INFO:   Peak FD: 1.667
23/01/2025 06:15:04.102 | Info | [06:15:04] ℹ️ INFO: ════════════════════════════════════════
23/01/2025 06:15:04.102 | Info | [06:15:04] ℹ️ INFO: ⏳ Waiting for TIP confirmation (Threshold: 1.1)...
23/01/2025 06:15:04.802 | Info | [06:15:04] ℹ️ INFO: 🔥 TIP CONFIRMED - Z-Score: 2.87
23/01/2025 06:15:04.802 | Trade | Executing Market Order to Buy 271000 EURUSD (SL: 15)
23/01/2025 06:15:04.802 | Trade | → Executing Market Order to Buy 271000 EURUSD (SL: 15) SUCCEEDED, Position PID3
23/01/2025 06:15:04.802 | Info | [06:15:04] ℹ️ INFO: ════════════════════════════════════════
23/01/2025 06:15:04.802 | Info | [06:15:04] ℹ️ INFO: 🚀 TRADE EXECUTED - TIP Triggered
23/01/2025 06:15:04.802 | Info | [06:15:04] ℹ️ INFO: Position: 3
23/01/2025 06:15:04.802 | Info | [06:15:04] ℹ️ INFO: Direction: Buy
23/01/2025 06:15:04.802 | Info | [06:15:04] ℹ️ INFO: Entry: 1.04086
23/01/2025 06:15:04.802 | Info | [06:15:04] ℹ️ INFO: Volume: 271.00 lots
23/01/2025 06:15:04.802 | Info | [06:15:04] ℹ️ INFO: Stop: 15.0 pips (Min: 15)
23/01/2025 06:15:04.802 | Info | [06:15:04] ℹ️ INFO: Risk: $349.76
23/01/2025 06:15:04.802 | Info | [06:15:04] ℹ️ INFO: TP1: 1.04129
23/01/2025 06:15:04.802 | Info | [06:15:04] ℹ️ INFO: TP2: 1.04245
23/01/2025 06:15:04.802 | Info | [06:15:04] ℹ️ INFO: P-Zero: 1.04129
23/01/2025 06:15:04.802 | Info | [06:15:04] ℹ️ INFO: Stretch: 4.3 pips
23/01/2025 06:15:04.802 | Info | [06:15:04] ℹ️ INFO: ════════════════════════════════════════
23/01/2025 06:30:01.802 | Info | [06:30:01] ℹ️ INFO: 🔄 TREND REVERSAL - Pos 3
23/01/2025 06:30:01.802 | Trade | Closing position PID3 (Volume: 271000)
23/01/2025 06:30:01.802 | Trade | → Closing position PID3 (Volume: 271000) SUCCEEDED
23/01/2025 06:30:01.802 | Info | [06:30:01] ℹ️ INFO: ✅ Closed 3
23/01/2025 06:30:01.802 | Info | [06:30:01] ℹ️ INFO: ════════════════════════════════════════
23/01/2025 06:30:01.802 | Info | [06:30:01] ℹ️ INFO: 📊 POSITION CLOSED
23/01/2025 06:30:01.802 | Info | [06:30:01] ℹ️ INFO: ID: 3
23/01/2025 06:30:01.802 | Info | [06:30:01] ℹ️ INFO: Direction: Buy
23/01/2025 06:30:01.802 | Info | [06:30:01] ℹ️ INFO: Entry: 1.04086
23/01/2025 06:30:01.802 | Info | [06:30:01] ℹ️ INFO: P&L: $55.94
23/01/2025 06:30:01.802 | Info | [06:30:01] ℹ️ INFO: Pips: 3.3
23/01/2025 06:30:01.802 | Info | [06:30:01] ℹ️ INFO: Reason: Closed
23/01/2025 06:30:01.802 | Info | [06:30:01] ℹ️ INFO: ════════════════════════════════════════
23/01/2025 09:15:00.302 | Info | [09:15:00] ℹ️ INFO: 🌀 CHAOS STARTED - Bar: 424, Price: 1.04031, FD: 1.654
23/01/2025 10:15:01.702 | Info | [10:15:01] ℹ️ INFO: 🔻 FRACTAL PEAK DETECTED - Bar: 425, Peak Price: 1.04076, Start Price: 1.04031, FD: 1.659
23/01/2025 10:15:01.702 | Info | [10:15:01] ℹ️ INFO: ════════════════════════════════════════
23/01/2025 10:15:01.702 | Info | [10:15:01] ℹ️ INFO: 🎯 SIGNAL DETECTED: REVERSAL (Price spiked against trend)
23/01/2025 10:15:01.702 | Info | [10:15:01] ℹ️ INFO:   Direction: Sell
23/01/2025 10:15:01.702 | Info | [10:15:01] ℹ️ INFO:   Trend: UP
23/01/2025 10:15:01.702 | Info | [10:15:01] ℹ️ INFO:   Peak Price: 1.04076
23/01/2025 10:15:01.702 | Info | [10:15:01] ℹ️ INFO:   Start Price: 1.04031
23/01/2025 10:15:01.702 | Info | [10:15:01] ℹ️ INFO:   Price Delta: 0.00045
23/01/2025 10:15:01.702 | Info | [10:15:01] ℹ️ INFO:   Peak FD: 1.659
23/01/2025 10:15:01.702 | Info | [10:15:01] ℹ️ INFO: ════════════════════════════════════════
23/01/2025 10:15:01.702 | Info | [10:15:01] ℹ️ INFO: ⏳ Waiting for TIP confirmation (Threshold: 1.1)...
23/01/2025 10:30:00.101 | Info | [10:30:00] ℹ️ INFO: ════════════════════════════════════════
23/01/2025 10:30:00.101 | Info | [10:30:00] ℹ️ INFO: 🎯 SIGNAL DETECTED: REVERSAL (Price spiked against trend)
23/01/2025 10:30:00.101 | Info | [10:30:00] ℹ️ INFO:   Direction: Sell
23/01/2025 10:30:00.101 | Info | [10:30:00] ℹ️ INFO:   Trend: UP
23/01/2025 10:30:00.101 | Info | [10:30:00] ℹ️ INFO:   Peak Price: 1.04076
23/01/2025 10:30:00.101 | Info | [10:30:00] ℹ️ INFO:   Start Price: 1.04031
23/01/2025 10:30:00.101 | Info | [10:30:00] ℹ️ INFO:   Price Delta: 0.00045
23/01/2025 10:30:00.101 | Info | [10:30:00] ℹ️ INFO:   Peak FD: 1.659
23/01/2025 10:30:00.101 | Info | [10:30:00] ℹ️ INFO: ════════════════════════════════════════
23/01/2025 10:30:00.101 | Info | [10:30:00] ℹ️ INFO: ⏳ Waiting for TIP confirmation (Threshold: 1.1)...
23/01/2025 10:45:00.201 | Info | [10:45:00] ℹ️ INFO: ════════════════════════════════════════
23/01/2025 10:45:00.201 | Info | [10:45:00] ℹ️ INFO: 🎯 SIGNAL DETECTED: REVERSAL (Price spiked against trend)
23/01/2025 10:45:00.201 | Info | [10:45:00] ℹ️ INFO:   Direction: Sell
23/01/2025 10:45:00.201 | Info | [10:45:00] ℹ️ INFO:   Trend: UP
23/01/2025 10:45:00.201 | Info | [10:45:00] ℹ️ INFO:   Peak Price: 1.04076
23/01/2025 10:45:00.201 | Info | [10:45:00] ℹ️ INFO:   Start Price: 1.04031
23/01/2025 10:45:00.201 | Info | [10:45:00] ℹ️ INFO:   Price Delta: 0.00045
23/01/2025 10:45:00.201 | Info | [10:45:00] ℹ️ INFO:   Peak FD: 1.659
23/01/2025 10:45:00.201 | Info | [10:45:00] ℹ️ INFO: ════════════════════════════════════════
23/01/2025 10:45:00.201 | Info | [10:45:00] ℹ️ INFO: ⏳ Waiting for TIP confirmation (Threshold: 1.1)...
23/01/2025 11:00:00.318 | Info | [11:00:00] ℹ️ INFO: ════════════════════════════════════════
23/01/2025 11:00:00.318 | Info | [11:00:00] ℹ️ INFO: 🎯 SIGNAL DETECTED: REVERSAL (Price spiked against trend)
23/01/2025 11:00:00.318 | Info | [11:00:00] ℹ️ INFO:   Direction: Sell
23/01/2025 11:00:00.318 | Info | [11:00:00] ℹ️ INFO:   Trend: UP
23/01/2025 11:00:00.318 | Info | [11:00:00] ℹ️ INFO:   Peak Price: 1.04076
23/01/2025 11:00:00.318 | Info | [11:00:00] ℹ️ INFO:   Start Price: 1.04031
23/01/2025 11:00:00.318 | Info | [11:00:00] ℹ️ INFO:   Price Delta: 0.00045
23/01/2025 11:00:00.318 | Info | [11:00:00] ℹ️ INFO:   Peak FD: 1.659
23/01/2025 11:00:00.318 | Info | [11:00:00] ℹ️ INFO: ════════════════════════════════════════
23/01/2025 11:00:00.318 | Info | [11:00:00] ℹ️ INFO: ⏳ Waiting for TIP confirmation (Threshold: 1.1)...
23/01/2025 11:15:02.302 | Info | [11:15:02] ℹ️ INFO: ════════════════════════════════════════
23/01/2025 11:15:02.302 | Info | [11:15:02] ℹ️ INFO: 🎯 SIGNAL DETECTED: REVERSAL (Price spiked against trend)
23/01/2025 11:15:02.302 | Info | [11:15:02] ℹ️ INFO:   Direction: Sell
23/01/2025 11:15:02.302 | Info | [11:15:02] ℹ️ INFO:   Trend: UP
23/01/2025 11:15:02.302 | Info | [11:15:02] ℹ️ INFO:   Peak Price: 1.04076
23/01/2025 11:15:02.302 | Info | [11:15:02] ℹ️ INFO:   Start Price: 1.04031
23/01/2025 11:15:02.302 | Info | [11:15:02] ℹ️ INFO:   Price Delta: 0.00045
23/01/2025 11:15:02.302 | Info | [11:15:02] ℹ️ INFO:   Peak FD: 1.659
23/01/2025 11:15:02.302 | Info | [11:15:02] ℹ️ INFO: ════════════════════════════════════════
23/01/2025 11:15:02.302 | Info | [11:15:02] ℹ️ INFO: ⏳ Waiting for TIP confirmation (Threshold: 1.1)...
23/01/2025 11:30:00.204 | Info | [11:30:00] ℹ️ INFO: ════════════════════════════════════════
23/01/2025 11:30:00.204 | Info | [11:30:00] ℹ️ INFO: 🎯 SIGNAL DETECTED: REVERSAL (Price spiked against trend)
23/01/2025 11:30:00.204 | Info | [11:30:00] ℹ️ INFO:   Direction: Sell
23/01/2025 11:30:00.204 | Info | [11:30:00] ℹ️ INFO:   Trend: UP
23/01/2025 11:30:00.204 | Info | [11:30:00] ℹ️ INFO:   Peak Price: 1.04076
23/01/2025 11:30:00.204 | Info | [11:30:00] ℹ️ INFO:   Start Price: 1.04031
23/01/2025 11:30:00.204 | Info | [11:30:00] ℹ️ INFO:   Price Delta: 0.00045
23/01/2025 11:30:00.204 | Info | [11:30:00] ℹ️ INFO:   Peak FD: 1.659
23/01/2025 11:30:00.204 | Info | [11:30:00] ℹ️ INFO: ════════════════════════════════════════
23/01/2025 11:30:00.204 | Info | [11:30:00] ℹ️ INFO: ⏳ Waiting for TIP confirmation (Threshold: 1.1)...
23/01/2025 11:45:00.505 | Info | [11:45:00] ℹ️ INFO: ════════════════════════════════════════
23/01/2025 11:45:00.505 | Info | [11:45:00] ℹ️ INFO: 🎯 SIGNAL DETECTED: REVERSAL (Price spiked against trend)
23/01/2025 11:45:00.505 | Info | [11:45:00] ℹ️ INFO:   Direction: Sell
23/01/2025 11:45:00.505 | Info | [11:45:00] ℹ️ INFO:   Trend: UP
23/01/2025 11:45:00.505 | Info | [11:45:00] ℹ️ INFO:   Peak Price: 1.04076
23/01/2025 11:45:00.505 | Info | [11:45:00] ℹ️ INFO:   Start Price: 1.04031
23/01/2025 11:45:00.505 | Info | [11:45:00] ℹ️ INFO:   Price Delta: 0.00045
23/01/2025 11:45:00.505 | Info | [11:45:00] ℹ️ INFO:   Peak FD: 1.659
23/01/2025 11:45:00.505 | Info | [11:45:00] ℹ️ INFO: ════════════════════════════════════════
23/01/2025 11:45:00.505 | Info | [11:45:00] ℹ️ INFO: ⏳ Waiting for TIP confirmation (Threshold: 1.1)...
23/01/2025 11:45:00.901 | Info | [11:45:00] ℹ️ INFO: 🔥 TIP CONFIRMED - Z-Score: 1.72
23/01/2025 11:45:00.901 | Trade | Executing Market Order to Sell 249000 EURUSD (SL: 16.4)
23/01/2025 11:45:00.901 | Trade | → Executing Market Order to Sell 249000 EURUSD (SL: 16.4) SUCCEEDED, Position PID4
23/01/2025 11:45:00.901 | Info | [11:45:00] ℹ️ INFO: ════════════════════════════════════════
23/01/2025 11:45:00.901 | Info | [11:45:00] ℹ️ INFO: 🚀 TRADE EXECUTED - TIP Triggered
23/01/2025 11:45:00.901 | Info | [11:45:00] ℹ️ INFO: Position: 4
23/01/2025 11:45:00.901 | Info | [11:45:00] ℹ️ INFO: Direction: Sell
23/01/2025 11:45:00.901 | Info | [11:45:00] ℹ️ INFO: Entry: 1.04105
23/01/2025 11:45:00.901 | Info | [11:45:00] ℹ️ INFO: Volume: 249.00 lots
23/01/2025 11:45:00.901 | Info | [11:45:00] ℹ️ INFO: Stop: 16.4 pips (Min: 15)
23/01/2025 11:45:00.901 | Info | [11:45:00] ℹ️ INFO: Risk: $351.78
23/01/2025 11:45:00.901 | Info | [11:45:00] ℹ️ INFO: TP1: 1.03898
23/01/2025 11:45:00.901 | Info | [11:45:00] ℹ️ INFO: TP2: 1.03339
23/01/2025 11:45:00.901 | Info | [11:45:00] ℹ️ INFO: P-Zero: 1.03898
23/01/2025 11:45:00.901 | Info | [11:45:00] ℹ️ INFO: Stretch: 20.7 pips
23/01/2025 11:45:00.901 | Info | [11:45:00] ℹ️ INFO: ════════════════════════════════════════
23/01/2025 12:00:00.602 | Info | [12:00:00] ℹ️ INFO: 🔄 TREND REVERSAL - Pos 4
23/01/2025 12:00:00.602 | Trade | Closing position PID4 (Volume: 249000)
23/01/2025 12:00:00.602 | Trade | → Closing position PID4 (Volume: 249000) SUCCEEDED
23/01/2025 12:00:00.602 | Info | [12:00:00] ℹ️ INFO: ✅ Closed 4
23/01/2025 12:00:00.602 | Info | [12:00:00] ℹ️ INFO: ════════════════════════════════════════
23/01/2025 12:00:00.602 | Info | [12:00:00] ℹ️ INFO: 📊 POSITION CLOSED
23/01/2025 12:00:00.602 | Info | [12:00:00] ℹ️ INFO: ID: 4
23/01/2025 12:00:00.602 | Info | [12:00:00] ℹ️ INFO: Direction: Sell
23/01/2025 12:00:00.602 | Info | [12:00:00] ℹ️ INFO: Entry: 1.04105
23/01/2025 12:00:00.602 | Info | [12:00:00] ℹ️ INFO: P&L: $134.92
23/01/2025 12:00:00.602 | Info | [12:00:00] ℹ️ INFO: Pips: 7.2
23/01/2025 12:00:00.602 | Info | [12:00:00] ℹ️ INFO: Reason: Closed
23/01/2025 12:00:00.602 | Info | [12:00:00] ℹ️ INFO: ════════════════════════════════════════
23/01/2025 17:00:00.304 | Info | [17:00:00] ℹ️ INFO: 🌀 CHAOS STARTED - Bar: 455, Price: 1.04192, FD: 1.651
23/01/2025 18:15:00.006 | Info | [18:15:00] ℹ️ INFO: 🔻 FRACTAL PEAK DETECTED - Bar: 457, Peak Price: 1.04297, Start Price: 1.04192, FD: 1.661
23/01/2025 18:15:00.006 | Info | [18:15:00] ℹ️ INFO: ════════════════════════════════════════
23/01/2025 18:15:00.006 | Info | [18:15:00] ℹ️ INFO: 🎯 SIGNAL DETECTED: REVERSAL (Price spiked against trend)
23/01/2025 18:15:00.006 | Info | [18:15:00] ℹ️ INFO:   Direction: Sell
23/01/2025 18:15:00.006 | Info | [18:15:00] ℹ️ INFO:   Trend: UP
23/01/2025 18:15:00.006 | Info | [18:15:00] ℹ️ INFO:   Peak Price: 1.04297
23/01/2025 18:15:00.006 | Info | [18:15:00] ℹ️ INFO:   Start Price: 1.04192
23/01/2025 18:15:00.006 | Info | [18:15:00] ℹ️ INFO:   Price Delta: 0.00105
23/01/2025 18:15:00.006 | Info | [18:15:00] ℹ️ INFO:   Peak FD: 1.661
23/01/2025 18:15:00.006 | Info | [18:15:00] ℹ️ INFO: ════════════════════════════════════════
23/01/2025 18:15:00.006 | Info | [18:15:00] ℹ️ INFO: ⏳ Waiting for TIP confirmation (Threshold: 1.1)...
23/01/2025 18:30:02.302 | Info | [18:30:02] ℹ️ INFO: ════════════════════════════════════════
23/01/2025 18:30:02.302 | Info | [18:30:02] ℹ️ INFO: 🎯 SIGNAL DETECTED: REVERSAL (Price spiked against trend)
23/01/2025 18:30:02.302 | Info | [18:30:02] ℹ️ INFO:   Direction: Sell
23/01/2025 18:30:02.302 | Info | [18:30:02] ℹ️ INFO:   Trend: UP
23/01/2025 18:30:02.302 | Info | [18:30:02] ℹ️ INFO:   Peak Price: 1.04297
23/01/2025 18:30:02.302 | Info | [18:30:02] ℹ️ INFO:   Start Price: 1.04192
23/01/2025 18:30:02.302 | Info | [18:30:02] ℹ️ INFO:   Price Delta: 0.00105
23/01/2025 18:30:02.302 | Info | [18:30:02] ℹ️ INFO:   Peak FD: 1.661
23/01/2025 18:30:02.302 | Info | [18:30:02] ℹ️ INFO: ════════════════════════════════════════
23/01/2025 18:30:02.302 | Info | [18:30:02] ℹ️ INFO: ⏳ Waiting for TIP confirmation (Threshold: 1.1)...
23/01/2025 18:45:01.903 | Info | [18:45:01] ℹ️ INFO: ════════════════════════════════════════
23/01/2025 18:45:01.903 | Info | [18:45:01] ℹ️ INFO: 🎯 SIGNAL DETECTED: REVERSAL (Price spiked against trend)
23/01/2025 18:45:01.903 | Info | [18:45:01] ℹ️ INFO:   Direction: Sell
23/01/2025 18:45:01.903 | Info | [18:45:01] ℹ️ INFO:   Trend: UP
23/01/2025 18:45:01.903 | Info | [18:45:01] ℹ️ INFO:   Peak Price: 1.04297
23/01/2025 18:45:01.903 | Info | [18:45:01] ℹ️ INFO:   Start Price: 1.04192
23/01/2025 18:45:01.903 | Info | [18:45:01] ℹ️ INFO:   Price Delta: 0.00105
23/01/2025 18:45:01.903 | Info | [18:45:01] ℹ️ INFO:   Peak FD: 1.661
23/01/2025 18:45:01.903 | Info | [18:45:01] ℹ️ INFO: ════════════════════════════════════════
23/01/2025 18:45:01.903 | Info | [18:45:01] ℹ️ INFO: ⏳ Waiting for TIP confirmation (Threshold: 1.1)...
23/01/2025 19:00:08.103 | Info | [19:00:08] ℹ️ INFO: ════════════════════════════════════════
23/01/2025 19:00:08.103 | Info | [19:00:08] ℹ️ INFO: 🎯 SIGNAL DETECTED: REVERSAL (Price spiked against trend)
23/01/2025 19:00:08.103 | Info | [19:00:08] ℹ️ INFO:   Direction: Sell
23/01/2025 19:00:08.103 | Info | [19:00:08] ℹ️ INFO:   Trend: UP
23/01/2025 19:00:08.103 | Info | [19:00:08] ℹ️ INFO:   Peak Price: 1.04297
23/01/2025 19:00:08.103 | Info | [19:00:08] ℹ️ INFO:   Start Price: 1.04192
23/01/2025 19:00:08.103 | Info | [19:00:08] ℹ️ INFO:   Price Delta: 0.00105
23/01/2025 19:00:08.103 | Info | [19:00:08] ℹ️ INFO:   Peak FD: 1.661
23/01/2025 19:00:08.103 | Info | [19:00:08] ℹ️ INFO: ════════════════════════════════════════
23/01/2025 19:00:08.103 | Info | [19:00:08] ℹ️ INFO: ⏳ Waiting for TIP confirmation (Threshold: 1.1)...
23/01/2025 19:15:00.508 | Info | [19:15:00] ℹ️ INFO: ════════════════════════════════════════
23/01/2025 19:15:00.508 | Info | [19:15:00] ℹ️ INFO: 🎯 SIGNAL DETECTED: REVERSAL (Price spiked against trend)
23/01/2025 19:15:00.508 | Info | [19:15:00] ℹ️ INFO:   Direction: Sell
23/01/2025 19:15:00.508 | Info | [19:15:00] ℹ️ INFO:   Trend: UP
23/01/2025 19:15:00.508 | Info | [19:15:00] ℹ️ INFO:   Peak Price: 1.04297
23/01/2025 19:15:00.508 | Info | [19:15:00] ℹ️ INFO:   Start Price: 1.04192
23/01/2025 19:15:00.508 | Info | [19:15:00] ℹ️ INFO:   Price Delta: 0.00105
23/01/2025 19:15:00.508 | Info | [19:15:00] ℹ️ INFO:   Peak FD: 1.661
23/01/2025 19:15:00.508 | Info | [19:15:00] ℹ️ INFO: ════════════════════════════════════════
23/01/2025 19:15:00.508 | Info | [19:15:00] ℹ️ INFO: ⏳ Waiting for TIP confirmation (Threshold: 1.1)...
23/01/2025 19:30:00.402 | Info | [19:30:00] ℹ️ INFO: ════════════════════════════════════════
23/01/2025 19:30:00.402 | Info | [19:30:00] ℹ️ INFO: 🎯 SIGNAL DETECTED: REVERSAL (Price spiked against trend)
23/01/2025 19:30:00.402 | Info | [19:30:00] ℹ️ INFO:   Direction: Sell
23/01/2025 19:30:00.402 | Info | [19:30:00] ℹ️ INFO:   Trend: UP
23/01/2025 19:30:00.402 | Info | [19:30:00] ℹ️ INFO:   Peak Price: 1.04297
23/01/2025 19:30:00.402 | Info | [19:30:00] ℹ️ INFO:   Start Price: 1.04192
23/01/2025 19:30:00.402 | Info | [19:30:00] ℹ️ INFO:   Price Delta: 0.00105
23/01/2025 19:30:00.402 | Info | [19:30:00] ℹ️ INFO:   Peak FD: 1.661
23/01/2025 19:30:00.402 | Info | [19:30:00] ℹ️ INFO: ════════════════════════════════════════
23/01/2025 19:30:00.402 | Info | [19:30:00] ℹ️ INFO: ⏳ Waiting for TIP confirmation (Threshold: 1.1)...
23/01/2025 19:45:00.302 | Info | [19:45:00] ℹ️ INFO: ════════════════════════════════════════
23/01/2025 19:45:00.302 | Info | [19:45:00] ℹ️ INFO: 🎯 SIGNAL DETECTED: CORRECTION (Price rose)
23/01/2025 19:45:00.302 | Info | [19:45:00] ℹ️ INFO:   Direction: Sell
23/01/2025 19:45:00.302 | Info | [19:45:00] ℹ️ INFO:   Trend: DOWN
23/01/2025 19:45:00.302 | Info | [19:45:00] ℹ️ INFO:   Peak Price: 1.04297
23/01/2025 19:45:00.302 | Info | [19:45:00] ℹ️ INFO:   Start Price: 1.04192
23/01/2025 19:45:00.302 | Info | [19:45:00] ℹ️ INFO:   Price Delta: 0.00105
23/01/2025 19:45:00.302 | Info | [19:45:00] ℹ️ INFO:   Peak FD: 1.661
23/01/2025 19:45:00.302 | Info | [19:45:00] ℹ️ INFO: ════════════════════════════════════════
23/01/2025 19:45:00.302 | Info | [19:45:00] ℹ️ INFO: ⏳ Waiting for TIP confirmation (Threshold: 1.1)...
23/01/2025 20:00:00.306 | Info | [20:00:00] ℹ️ INFO: ════════════════════════════════════════
23/01/2025 20:00:00.306 | Info | [20:00:00] ℹ️ INFO: 🎯 SIGNAL DETECTED: CORRECTION (Price rose)
23/01/2025 20:00:00.306 | Info | [20:00:00] ℹ️ INFO:   Direction: Sell
23/01/2025 20:00:00.306 | Info | [20:00:00] ℹ️ INFO:   Trend: DOWN
23/01/2025 20:00:00.306 | Info | [20:00:00] ℹ️ INFO:   Peak Price: 1.04297
23/01/2025 20:00:00.306 | Info | [20:00:00] ℹ️ INFO:   Start Price: 1.04192
23/01/2025 20:00:00.306 | Info | [20:00:00] ℹ️ INFO:   Price Delta: 0.00105
23/01/2025 20:00:00.306 | Info | [20:00:00] ℹ️ INFO:   Peak FD: 1.661
23/01/2025 20:00:00.306 | Info | [20:00:00] ℹ️ INFO: ════════════════════════════════════════
23/01/2025 20:00:00.306 | Info | [20:00:00] ℹ️ INFO: ⏳ Waiting for TIP confirmation (Threshold: 1.1)...
23/01/2025 20:15:00.503 | Info | [20:15:00] ℹ️ INFO: ════════════════════════════════════════
23/01/2025 20:15:00.503 | Info | [20:15:00] ℹ️ INFO: 🎯 SIGNAL DETECTED: CORRECTION (Price rose)
23/01/2025 20:15:00.503 | Info | [20:15:00] ℹ️ INFO:   Direction: Sell
23/01/2025 20:15:00.503 | Info | [20:15:00] ℹ️ INFO:   Trend: DOWN
23/01/2025 20:15:00.503 | Info | [20:15:00] ℹ️ INFO:   Peak Price: 1.04297
23/01/2025 20:15:00.503 | Info | [20:15:00] ℹ️ INFO:   Start Price: 1.04192
23/01/2025 20:15:00.503 | Info | [20:15:00] ℹ️ INFO:   Price Delta: 0.00105
23/01/2025 20:15:00.503 | Info | [20:15:00] ℹ️ INFO:   Peak FD: 1.661
23/01/2025 20:15:00.503 | Info | [20:15:00] ℹ️ INFO: ════════════════════════════════════════
23/01/2025 20:15:00.503 | Info | [20:15:00] ℹ️ INFO: ⏳ Waiting for TIP confirmation (Threshold: 1.1)...
23/01/2025 20:30:01.806 | Info | [20:30:01] ℹ️ INFO: ════════════════════════════════════════
23/01/2025 20:30:01.806 | Info | [20:30:01] ℹ️ INFO: 🎯 SIGNAL DETECTED: CORRECTION (Price rose)
23/01/2025 20:30:01.806 | Info | [20:30:01] ℹ️ INFO:   Direction: Sell
23/01/2025 20:30:01.806 | Info | [20:30:01] ℹ️ INFO:   Trend: DOWN
23/01/2025 20:30:01.806 | Info | [20:30:01] ℹ️ INFO:   Peak Price: 1.04297
23/01/2025 20:30:01.806 | Info | [20:30:01] ℹ️ INFO:   Start Price: 1.04192
23/01/2025 20:30:01.806 | Info | [20:30:01] ℹ️ INFO:   Price Delta: 0.00105
23/01/2025 20:30:01.806 | Info | [20:30:01] ℹ️ INFO:   Peak FD: 1.661
23/01/2025 20:30:01.806 | Info | [20:30:01] ℹ️ INFO: ════════════════════════════════════════
23/01/2025 20:30:01.806 | Info | [20:30:01] ℹ️ INFO: ⏳ Waiting for TIP confirmation (Threshold: 1.1)...
23/01/2025 20:45:00.002 | Info | [20:45:00] ℹ️ INFO: ════════════════════════════════════════
23/01/2025 20:45:00.002 | Info | [20:45:00] ℹ️ INFO: 🎯 SIGNAL DETECTED: CORRECTION (Price rose)
23/01/2025 20:45:00.002 | Info | [20:45:00] ℹ️ INFO:   Direction: Sell
23/01/2025 20:45:00.002 | Info | [20:45:00] ℹ️ INFO:   Trend: DOWN
23/01/2025 20:45:00.002 | Info | [20:45:00] ℹ️ INFO:   Peak Price: 1.04297
23/01/2025 20:45:00.002 | Info | [20:45:00] ℹ️ INFO:   Start Price: 1.04192
23/01/2025 20:45:00.002 | Info | [20:45:00] ℹ️ INFO:   Price Delta: 0.00105
23/01/2025 20:45:00.002 | Info | [20:45:00] ℹ️ INFO:   Peak FD: 1.661
23/01/2025 20:45:00.002 | Info | [20:45:00] ℹ️ INFO: ════════════════════════════════════════
23/01/2025 20:45:00.002 | Info | [20:45:00] ℹ️ INFO: ⏳ Waiting for TIP confirmation (Threshold: 1.1)...
23/01/2025 21:00:00.106 | Info | [21:00:00] ℹ️ INFO: ════════════════════════════════════════
23/01/2025 21:00:00.106 | Info | [21:00:00] ℹ️ INFO: 🎯 SIGNAL DETECTED: CORRECTION (Price rose)
23/01/2025 21:00:00.106 | Info | [21:00:00] ℹ️ INFO:   Direction: Sell
23/01/2025 21:00:00.106 | Info | [21:00:00] ℹ️ INFO:   Trend: DOWN
23/01/2025 21:00:00.106 | Info | [21:00:00] ℹ️ INFO:   Peak Price: 1.04297
23/01/2025 21:00:00.106 | Info | [21:00:00] ℹ️ INFO:   Start Price: 1.04192
23/01/2025 21:00:00.106 | Info | [21:00:00] ℹ️ INFO:   Price Delta: 0.00105
23/01/2025 21:00:00.106 | Info | [21:00:00] ℹ️ INFO:   Peak FD: 1.661
23/01/2025 21:00:00.106 | Info | [21:00:00] ℹ️ INFO: ════════════════════════════════════════
23/01/2025 21:00:00.106 | Info | [21:00:00] ℹ️ INFO: ⏳ Waiting for TIP confirmation (Threshold: 1.1)...
23/01/2025 21:15:00.102 | Info | [21:15:00] ℹ️ INFO: ════════════════════════════════════════
23/01/2025 21:15:00.102 | Info | [21:15:00] ℹ️ INFO: 🎯 SIGNAL DETECTED: CORRECTION (Price rose)
23/01/2025 21:15:00.102 | Info | [21:15:00] ℹ️ INFO:   Direction: Sell
23/01/2025 21:15:00.102 | Info | [21:15:00] ℹ️ INFO:   Trend: DOWN
23/01/2025 21:15:00.102 | Info | [21:15:00] ℹ️ INFO:   Peak Price: 1.04297
23/01/2025 21:15:00.102 | Info | [21:15:00] ℹ️ INFO:   Start Price: 1.04192
23/01/2025 21:15:00.102 | Info | [21:15:00] ℹ️ INFO:   Price Delta: 0.00105
23/01/2025 21:15:00.102 | Info | [21:15:00] ℹ️ INFO:   Peak FD: 1.661
23/01/2025 21:15:00.102 | Info | [21:15:00] ℹ️ INFO: ════════════════════════════════════════
23/01/2025 21:15:00.102 | Info | [21:15:00] ℹ️ INFO: ⏳ Waiting for TIP confirmation (Threshold: 1.1)...
23/01/2025 22:01:52.648 | Info | [22:01:52] ⚠️ WARN: ⚠️ Signal [CORRECTION (Price rose)] BLOCKED - TOXIC market (Score: 76.00)
23/01/2025 22:15:00.603 | Info | [22:15:00] ⚠️ WARN: ⚠️ Signal [CORRECTION (Price rose)] BLOCKED - TOXIC market (Score: 37.00)
23/01/2025 22:30:01.301 | Info | [22:30:01] ⚠️ WARN: ⚠️ Signal [CORRECTION (Price rose)] BLOCKED - TOXIC market (Score: 12.00)
23/01/2025 22:45:21.302 | Info | [22:45:21] ℹ️ INFO: ════════════════════════════════════════
23/01/2025 22:45:21.302 | Info | [22:45:21] ℹ️ INFO: 🎯 SIGNAL DETECTED: CORRECTION (Price rose)
23/01/2025 22:45:21.302 | Info | [22:45:21] ℹ️ INFO:   Direction: Sell
23/01/2025 22:45:21.302 | Info | [22:45:21] ℹ️ INFO:   Trend: DOWN
23/01/2025 22:45:21.302 | Info | [22:45:21] ℹ️ INFO:   Peak Price: 1.04297
23/01/2025 22:45:21.302 | Info | [22:45:21] ℹ️ INFO:   Start Price: 1.04192
23/01/2025 22:45:21.302 | Info | [22:45:21] ℹ️ INFO:   Price Delta: 0.00105
23/01/2025 22:45:21.302 | Info | [22:45:21] ℹ️ INFO:   Peak FD: 1.661
23/01/2025 22:45:21.302 | Info | [22:45:21] ℹ️ INFO: ════════════════════════════════════════
23/01/2025 22:45:21.302 | Info | [22:45:21] ℹ️ INFO: ⏳ Waiting for TIP confirmation (Threshold: 1.1)...
23/01/2025 23:00:00.205 | Info | [23:00:00] ℹ️ INFO: ════════════════════════════════════════
23/01/2025 23:00:00.205 | Info | [23:00:00] ℹ️ INFO: 🎯 SIGNAL DETECTED: CORRECTION (Price rose)
23/01/2025 23:00:00.205 | Info | [23:00:00] ℹ️ INFO:   Direction: Sell
23/01/2025 23:00:00.205 | Info | [23:00:00] ℹ️ INFO:   Trend: DOWN
23/01/2025 23:00:00.205 | Info | [23:00:00] ℹ️ INFO:   Peak Price: 1.04297
23/01/2025 23:00:00.205 | Info | [23:00:00] ℹ️ INFO:   Start Price: 1.04192
23/01/2025 23:00:00.205 | Info | [23:00:00] ℹ️ INFO:   Price Delta: 0.00105
23/01/2025 23:00:00.205 | Info | [23:00:00] ℹ️ INFO:   Peak FD: 1.661
23/01/2025 23:00:00.205 | Info | [23:00:00] ℹ️ INFO: ════════════════════════════════════════
23/01/2025 23:00:00.205 | Info | [23:00:00] ℹ️ INFO: ⏳ Waiting for TIP confirmation (Threshold: 1.1)...
23/01/2025 23:15:00.304 | Info | [23:15:00] ℹ️ INFO: ════════════════════════════════════════
23/01/2025 23:15:00.304 | Info | [23:15:00] ℹ️ INFO: 🎯 SIGNAL DETECTED: CORRECTION (Price rose)
23/01/2025 23:15:00.304 | Info | [23:15:00] ℹ️ INFO:   Direction: Sell
23/01/2025 23:15:00.304 | Info | [23:15:00] ℹ️ INFO:   Trend: DOWN
23/01/2025 23:15:00.304 | Info | [23:15:00] ℹ️ INFO:   Peak Price: 1.04297
23/01/2025 23:15:00.304 | Info | [23:15:00] ℹ️ INFO:   Start Price: 1.04192
23/01/2025 23:15:00.304 | Info | [23:15:00] ℹ️ INFO:   Price Delta: 0.00105
23/01/2025 23:15:00.304 | Info | [23:15:00] ℹ️ INFO:   Peak FD: 1.661
23/01/2025 23:15:00.304 | Info | [23:15:00] ℹ️ INFO: ════════════════════════════════════════
23/01/2025 23:15:00.304 | Info | [23:15:00] ℹ️ INFO: ⏳ Waiting for TIP confirmation (Threshold: 1.1)...
23/01/2025 23:30:02.101 | Info | [23:30:02] ℹ️ INFO: ════════════════════════════════════════
23/01/2025 23:30:02.101 | Info | [23:30:02] ℹ️ INFO: 🎯 SIGNAL DETECTED: CORRECTION (Price rose)
23/01/2025 23:30:02.101 | Info | [23:30:02] ℹ️ INFO:   Direction: Sell
23/01/2025 23:30:02.101 | Info | [23:30:02] ℹ️ INFO:   Trend: DOWN
23/01/2025 23:30:02.101 | Info | [23:30:02] ℹ️ INFO:   Peak Price: 1.04297
23/01/2025 23:30:02.101 | Info | [23:30:02] ℹ️ INFO:   Start Price: 1.04192
23/01/2025 23:30:02.101 | Info | [23:30:02] ℹ️ INFO:   Price Delta: 0.00105
23/01/2025 23:30:02.101 | Info | [23:30:02] ℹ️ INFO:   Peak FD: 1.661
23/01/2025 23:30:02.101 | Info | [23:30:02] ℹ️ INFO: ════════════════════════════════════════
23/01/2025 23:30:02.101 | Info | [23:30:02] ℹ️ INFO: ⏳ Waiting for TIP confirmation (Threshold: 1.1)...
23/01/2025 23:45:05.199 | Info | [23:45:05] ℹ️ INFO: ════════════════════════════════════════
23/01/2025 23:45:05.199 | Info | [23:45:05] ℹ️ INFO: 🎯 SIGNAL DETECTED: CORRECTION (Price rose)
23/01/2025 23:45:05.199 | Info | [23:45:05] ℹ️ INFO:   Direction: Sell
23/01/2025 23:45:05.199 | Info | [23:45:05] ℹ️ INFO:   Trend: DOWN
23/01/2025 23:45:05.199 | Info | [23:45:05] ℹ️ INFO:   Peak Price: 1.04297
23/01/2025 23:45:05.199 | Info | [23:45:05] ℹ️ INFO:   Start Price: 1.04192
23/01/2025 23:45:05.199 | Info | [23:45:05] ℹ️ INFO:   Price Delta: 0.00105
23/01/2025 23:45:05.199 | Info | [23:45:05] ℹ️ INFO:   Peak FD: 1.661
23/01/2025 23:45:05.199 | Info | [23:45:05] ℹ️ INFO: ════════════════════════════════════════
23/01/2025 23:45:05.199 | Info | [23:45:05] ℹ️ INFO: ⏳ Waiting for TIP confirmation (Threshold: 1.1)...
24/01/2025 00:00:00.302 | Info | [00:00:00] ℹ️ INFO: ════════════════════════════════════════
24/01/2025 00:00:00.302 | Info | [00:00:00] ℹ️ INFO: 🎯 SIGNAL DETECTED: CORRECTION (Price rose)
24/01/2025 00:00:00.302 | Info | [00:00:00] ℹ️ INFO:   Direction: Sell
24/01/2025 00:00:00.302 | Info | [00:00:00] ℹ️ INFO:   Trend: DOWN
24/01/2025 00:00:00.302 | Info | [00:00:00] ℹ️ INFO:   Peak Price: 1.04297
24/01/2025 00:00:00.302 | Info | [00:00:00] ℹ️ INFO:   Start Price: 1.04192
24/01/2025 00:00:00.302 | Info | [00:00:00] ℹ️ INFO:   Price Delta: 0.00105
24/01/2025 00:00:00.302 | Info | [00:00:00] ℹ️ INFO:   Peak FD: 1.661
24/01/2025 00:00:00.302 | Info | [00:00:00] ℹ️ INFO: ════════════════════════════════════════
24/01/2025 00:00:00.302 | Info | [00:00:00] ℹ️ INFO: ⏳ Waiting for TIP confirmation (Threshold: 1.1)...
24/01/2025 00:15:01.099 | Info | [00:15:01] ℹ️ INFO: ════════════════════════════════════════
24/01/2025 00:15:01.099 | Info | [00:15:01] ℹ️ INFO: 🎯 SIGNAL DETECTED: REVERSAL (Price spiked against trend)
24/01/2025 00:15:01.099 | Info | [00:15:01] ℹ️ INFO:   Direction: Sell
24/01/2025 00:15:01.099 | Info | [00:15:01] ℹ️ INFO:   Trend: UP
24/01/2025 00:15:01.099 | Info | [00:15:01] ℹ️ INFO:   Peak Price: 1.04297
24/01/2025 00:15:01.099 | Info | [00:15:01] ℹ️ INFO:   Start Price: 1.04192
24/01/2025 00:15:01.099 | Info | [00:15:01] ℹ️ INFO:   Price Delta: 0.00105
24/01/2025 00:15:01.099 | Info | [00:15:01] ℹ️ INFO:   Peak FD: 1.661
24/01/2025 00:15:01.099 | Info | [00:15:01] ℹ️ INFO: ════════════════════════════════════════
24/01/2025 00:15:01.099 | Info | [00:15:01] ℹ️ INFO: ⏳ Waiting for TIP confirmation (Threshold: 1.1)...
24/01/2025 00:15:01.399 | Info | [00:15:01] ℹ️ INFO: 🔥 TIP CONFIRMED - Z-Score: 2.85
24/01/2025 00:15:01.399 | Trade | Executing Market Order to Sell 276000 EURUSD (SL: 15)
24/01/2025 00:15:01.399 | Trade | → Executing Market Order to Sell 276000 EURUSD (SL: 15) SUCCEEDED, Position PID5
24/01/2025 00:15:01.399 | Info | [00:15:01] ℹ️ INFO: ════════════════════════════════════════
24/01/2025 00:15:01.399 | Info | [00:15:01] ℹ️ INFO: 🚀 TRADE EXECUTED - TIP Triggered
24/01/2025 00:15:01.399 | Info | [00:15:01] ℹ️ INFO: Position: 5
24/01/2025 00:15:01.399 | Info | [00:15:01] ℹ️ INFO: Direction: Sell
24/01/2025 00:15:01.399 | Info | [00:15:01] ℹ️ INFO: Entry: 1.04199
24/01/2025 00:15:01.399 | Info | [00:15:01] ℹ️ INFO: Volume: 276.00 lots
24/01/2025 00:15:01.399 | Info | [00:15:01] ℹ️ INFO: Stop: 15.0 pips (Min: 15)
24/01/2025 00:15:01.399 | Info | [00:15:01] ℹ️ INFO: Risk: $356.63
24/01/2025 00:15:01.399 | Info | [00:15:01] ℹ️ INFO: TP1: 1.04126
24/01/2025 00:15:01.399 | Info | [00:15:01] ℹ️ INFO: TP2: 1.03929
24/01/2025 00:15:01.399 | Info | [00:15:01] ℹ️ INFO: P-Zero: 1.04126
24/01/2025 00:15:01.399 | Info | [00:15:01] ℹ️ INFO: Stretch: 7.3 pips
24/01/2025 00:15:01.399 | Info | [00:15:01] ℹ️ INFO: ════════════════════════════════════════
24/01/2025 01:54:09.007 | Trade | Closing position PID5 (Volume: 229000)
24/01/2025 01:54:09.007 | Trade | → Closing position PID5 (Volume: 229000) SUCCEEDED, Position PID5
24/01/2025 01:54:09.007 | Info | [01:54:09] ℹ️ INFO: ✅ Closed 5
24/01/2025 01:54:09.007 | Trade | Modifying position PID5 (SL: 1.04199, TP: 1.03929)
24/01/2025 01:54:09.007 | Trade | → Modifying position PID5 (SL: 1.04199, TP: 1.03929) SUCCEEDED, Position PID5
24/01/2025 01:54:09.007 | Info | [01:54:09] ℹ️ INFO: ✅ TP1 HIT - Pos 5
24/01/2025 02:00:00.804 | Info | [02:00:00] ℹ️ INFO: 🔄 TREND REVERSAL - Pos 5
24/01/2025 02:00:00.804 | Trade | Closing position PID5 (Volume: 47000)
24/01/2025 02:00:00.804 | Trade | → Closing position PID5 (Volume: 47000) SUCCEEDED
24/01/2025 02:00:00.804 | Info | [02:00:00] ℹ️ INFO: ✅ Closed 5
24/01/2025 02:00:00.804 | Info | [02:00:00] ℹ️ INFO: ════════════════════════════════════════
24/01/2025 02:00:00.804 | Info | [02:00:00] ℹ️ INFO: 📊 POSITION CLOSED
24/01/2025 02:00:00.804 | Info | [02:00:00] ℹ️ INFO: ID: 5
24/01/2025 02:00:00.804 | Info | [02:00:00] ℹ️ INFO: Direction: Sell
24/01/2025 02:00:00.804 | Info | [02:00:00] ℹ️ INFO: Entry: 1.04199
24/01/2025 02:00:00.804 | Info | [02:00:00] ℹ️ INFO: P&L: $10.51
24/01/2025 02:00:00.804 | Info | [02:00:00] ℹ️ INFO: Pips: 3.5
24/01/2025 02:00:00.804 | Info | [02:00:00] ℹ️ INFO: Reason: Closed
24/01/2025 02:00:00.804 | Info | [02:00:00] ℹ️ INFO: ════════════════════════════════════════
28/01/2025 10:30:00.101 | Info | [10:30:00] ℹ️ INFO: 🌀 CHAOS STARTED - Bar: 711, Price: 1.04316, FD: 1.685
28/01/2025 12:00:00.208 | Info | [12:00:00] ℹ️ INFO: 🔻 FRACTAL PEAK DETECTED - Bar: 714, Peak Price: 1.04279, Start Price: 1.04316, FD: 1.778
28/01/2025 12:00:00.208 | Info | [12:00:00] ℹ️ INFO: ════════════════════════════════════════
28/01/2025 12:00:00.208 | Info | [12:00:00] ℹ️ INFO: 🎯 SIGNAL DETECTED: REVERSAL (Price dropped against trend)
28/01/2025 12:00:00.208 | Info | [12:00:00] ℹ️ INFO:   Direction: Buy
28/01/2025 12:00:00.208 | Info | [12:00:00] ℹ️ INFO:   Trend: DOWN
28/01/2025 12:00:00.208 | Info | [12:00:00] ℹ️ INFO:   Peak Price: 1.04279
28/01/2025 12:00:00.208 | Info | [12:00:00] ℹ️ INFO:   Start Price: 1.04316
28/01/2025 12:00:00.208 | Info | [12:00:00] ℹ️ INFO:   Price Delta: -0.00037
28/01/2025 12:00:00.208 | Info | [12:00:00] ℹ️ INFO:   Peak FD: 1.778
28/01/2025 12:00:00.208 | Info | [12:00:00] ℹ️ INFO: ════════════════════════════════════════
28/01/2025 12:00:00.208 | Info | [12:00:00] ℹ️ INFO: ⏳ Waiting for TIP confirmation (Threshold: 1.1)...
28/01/2025 12:00:00.508 | Info | [12:00:00] ℹ️ INFO: 🔥 TIP CONFIRMED - Z-Score: 1.43
28/01/2025 12:00:00.508 | Trade | Executing Market Order to Buy 218000 EURUSD (SL: 19.3)
28/01/2025 12:00:00.508 | Trade | → Executing Market Order to Buy 218000 EURUSD (SL: 19.3) SUCCEEDED, Position PID6
28/01/2025 12:00:00.508 | Info | [12:00:00] ℹ️ INFO: ════════════════════════════════════════
28/01/2025 12:00:00.508 | Info | [12:00:00] ℹ️ INFO: 🚀 TRADE EXECUTED - TIP Triggered
28/01/2025 12:00:00.508 | Info | [12:00:00] ℹ️ INFO: Position: 6
28/01/2025 12:00:00.508 | Info | [12:00:00] ℹ️ INFO: Direction: Buy
28/01/2025 12:00:00.508 | Info | [12:00:00] ℹ️ INFO: Entry: 1.04237
28/01/2025 12:00:00.508 | Info | [12:00:00] ℹ️ INFO: Volume: 218.00 lots
28/01/2025 12:00:00.508 | Info | [12:00:00] ℹ️ INFO: Stop: 19.3 pips (Min: 15)
28/01/2025 12:00:00.508 | Info | [12:00:00] ℹ️ INFO: Risk: $361.69
28/01/2025 12:00:00.508 | Info | [12:00:00] ℹ️ INFO: TP1: 1.04443
28/01/2025 12:00:00.508 | Info | [12:00:00] ℹ️ INFO: TP2: 1.04999
28/01/2025 12:00:00.508 | Info | [12:00:00] ℹ️ INFO: P-Zero: 1.04443
28/01/2025 12:00:00.508 | Info | [12:00:00] ℹ️ INFO: Stretch: 20.6 pips
28/01/2025 12:00:00.508 | Info | [12:00:00] ℹ️ INFO: ════════════════════════════════════════
28/01/2025 12:15:00.305 | Info | [12:15:00] ℹ️ INFO: 🌀 CHAOS STARTED - Bar: 718, Price: 1.04194, FD: 1.720
28/01/2025 13:45:02.103 | Info | [13:45:02] ℹ️ INFO: 🔄 TREND REVERSAL - Pos 6
28/01/2025 13:45:02.103 | Trade | Closing position PID6 (Volume: 218000)
28/01/2025 13:45:02.103 | Trade | → Closing position PID6 (Volume: 218000) SUCCEEDED
28/01/2025 13:45:02.103 | Info | [13:45:02] ℹ️ INFO: ✅ Closed 6
28/01/2025 13:45:02.103 | Info | [13:45:02] ℹ️ INFO: ════════════════════════════════════════
28/01/2025 13:45:02.103 | Info | [13:45:02] ℹ️ INFO: 📊 POSITION CLOSED
28/01/2025 13:45:02.103 | Info | [13:45:02] ℹ️ INFO: ID: 6
28/01/2025 13:45:02.103 | Info | [13:45:02] ℹ️ INFO: Direction: Buy
28/01/2025 13:45:02.103 | Info | [13:45:02] ℹ️ INFO: Entry: 1.04237
28/01/2025 13:45:02.103 | Info | [13:45:02] ℹ️ INFO: P&L: $103.12
28/01/2025 13:45:02.103 | Info | [13:45:02] ℹ️ INFO: Pips: 6.4
28/01/2025 13:45:02.103 | Info | [13:45:02] ℹ️ INFO: Reason: Closed
28/01/2025 13:45:02.103 | Info | [13:45:02] ℹ️ INFO: ════════════════════════════════════════
28/01/2025 14:30:00.103 | Info | [14:30:00] ℹ️ INFO: 🔻 FRACTAL PEAK DETECTED - Bar: 724, Peak Price: 1.04247, Start Price: 1.04194, FD: 1.742
28/01/2025 14:30:00.103 | Info | [14:30:00] ℹ️ INFO: ════════════════════════════════════════
28/01/2025 14:30:00.103 | Info | [14:30:00] ℹ️ INFO: 🎯 SIGNAL DETECTED: REVERSAL (Price spiked against trend)
28/01/2025 14:30:00.103 | Info | [14:30:00] ℹ️ INFO:   Direction: Sell
28/01/2025 14:30:00.103 | Info | [14:30:00] ℹ️ INFO:   Trend: UP
28/01/2025 14:30:00.103 | Info | [14:30:00] ℹ️ INFO:   Peak Price: 1.04247
28/01/2025 14:30:00.103 | Info | [14:30:00] ℹ️ INFO:   Start Price: 1.04194
28/01/2025 14:30:00.103 | Info | [14:30:00] ℹ️ INFO:   Price Delta: 0.00053
28/01/2025 14:30:00.103 | Info | [14:30:00] ℹ️ INFO:   Peak FD: 1.742
28/01/2025 14:30:00.103 | Info | [14:30:00] ℹ️ INFO: ════════════════════════════════════════
28/01/2025 14:30:00.103 | Info | [14:30:00] ℹ️ INFO: ⏳ Waiting for TIP confirmation (Threshold: 1.1)...
28/01/2025 14:45:01.802 | Info | [14:45:01] ℹ️ INFO: ════════════════════════════════════════
28/01/2025 14:45:01.802 | Info | [14:45:01] ℹ️ INFO: 🎯 SIGNAL DETECTED: REVERSAL (Price spiked against trend)
28/01/2025 14:45:01.802 | Info | [14:45:01] ℹ️ INFO:   Direction: Sell
28/01/2025 14:45:01.802 | Info | [14:45:01] ℹ️ INFO:   Trend: UP
28/01/2025 14:45:01.802 | Info | [14:45:01] ℹ️ INFO:   Peak Price: 1.04247
28/01/2025 14:45:01.802 | Info | [14:45:01] ℹ️ INFO:   Start Price: 1.04194
28/01/2025 14:45:01.802 | Info | [14:45:01] ℹ️ INFO:   Price Delta: 0.00053
28/01/2025 14:45:01.802 | Info | [14:45:01] ℹ️ INFO:   Peak FD: 1.742
28/01/2025 14:45:01.802 | Info | [14:45:01] ℹ️ INFO: ════════════════════════════════════════
28/01/2025 14:45:01.802 | Info | [14:45:01] ℹ️ INFO: ⏳ Waiting for TIP confirmation (Threshold: 1.1)...
28/01/2025 15:00:00.103 | Info | [15:00:00] ℹ️ INFO: ════════════════════════════════════════
28/01/2025 15:00:00.103 | Info | [15:00:00] ℹ️ INFO: 🎯 SIGNAL DETECTED: REVERSAL (Price spiked against trend)
28/01/2025 15:00:00.103 | Info | [15:00:00] ℹ️ INFO:   Direction: Sell
28/01/2025 15:00:00.103 | Info | [15:00:00] ℹ️ INFO:   Trend: UP
28/01/2025 15:00:00.103 | Info | [15:00:00] ℹ️ INFO:   Peak Price: 1.04247
28/01/2025 15:00:00.103 | Info | [15:00:00] ℹ️ INFO:   Start Price: 1.04194
28/01/2025 15:00:00.103 | Info | [15:00:00] ℹ️ INFO:   Price Delta: 0.00053
28/01/2025 15:00:00.103 | Info | [15:00:00] ℹ️ INFO:   Peak FD: 1.742
28/01/2025 15:00:00.103 | Info | [15:00:00] ℹ️ INFO: ════════════════════════════════════════
28/01/2025 15:00:00.103 | Info | [15:00:00] ℹ️ INFO: ⏳ Waiting for TIP confirmation (Threshold: 1.1)...
28/01/2025 15:15:00.206 | Info | [15:15:00] ℹ️ INFO: ════════════════════════════════════════
28/01/2025 15:15:00.206 | Info | [15:15:00] ℹ️ INFO: 🎯 SIGNAL DETECTED: REVERSAL (Price spiked against trend)
28/01/2025 15:15:00.206 | Info | [15:15:00] ℹ️ INFO:   Direction: Sell
28/01/2025 15:15:00.206 | Info | [15:15:00] ℹ️ INFO:   Trend: UP
28/01/2025 15:15:00.206 | Info | [15:15:00] ℹ️ INFO:   Peak Price: 1.04247
28/01/2025 15:15:00.206 | Info | [15:15:00] ℹ️ INFO:   Start Price: 1.04194
28/01/2025 15:15:00.206 | Info | [15:15:00] ℹ️ INFO:   Price Delta: 0.00053
28/01/2025 15:15:00.206 | Info | [15:15:00] ℹ️ INFO:   Peak FD: 1.742
28/01/2025 15:15:00.206 | Info | [15:15:00] ℹ️ INFO: ════════════════════════════════════════
28/01/2025 15:15:00.206 | Info | [15:15:00] ℹ️ INFO: ⏳ Waiting for TIP confirmation (Threshold: 1.1)...
28/01/2025 15:30:00.201 | Info | [15:30:00] ℹ️ INFO: ════════════════════════════════════════
28/01/2025 15:30:00.201 | Info | [15:30:00] ℹ️ INFO: 🎯 SIGNAL DETECTED: REVERSAL (Price spiked against trend)
28/01/2025 15:30:00.201 | Info | [15:30:00] ℹ️ INFO:   Direction: Sell
28/01/2025 15:30:00.201 | Info | [15:30:00] ℹ️ INFO:   Trend: UP
28/01/2025 15:30:00.201 | Info | [15:30:00] ℹ️ INFO:   Peak Price: 1.04247
28/01/2025 15:30:00.201 | Info | [15:30:00] ℹ️ INFO:   Start Price: 1.04194
28/01/2025 15:30:00.201 | Info | [15:30:00] ℹ️ INFO:   Price Delta: 0.00053
28/01/2025 15:30:00.201 | Info | [15:30:00] ℹ️ INFO:   Peak FD: 1.742
28/01/2025 15:30:00.201 | Info | [15:30:00] ℹ️ INFO: ════════════════════════════════════════
28/01/2025 15:30:00.201 | Info | [15:30:00] ℹ️ INFO: ⏳ Waiting for TIP confirmation (Threshold: 1.1)...
28/01/2025 15:45:03.002 | Info | [15:45:03] ℹ️ INFO: ════════════════════════════════════════
28/01/2025 15:45:03.002 | Info | [15:45:03] ℹ️ INFO: 🎯 SIGNAL DETECTED: REVERSAL (Price spiked against trend)
28/01/2025 15:45:03.002 | Info | [15:45:03] ℹ️ INFO:   Direction: Sell
28/01/2025 15:45:03.002 | Info | [15:45:03] ℹ️ INFO:   Trend: UP
28/01/2025 15:45:03.002 | Info | [15:45:03] ℹ️ INFO:   Peak Price: 1.04247
28/01/2025 15:45:03.002 | Info | [15:45:03] ℹ️ INFO:   Start Price: 1.04194
28/01/2025 15:45:03.002 | Info | [15:45:03] ℹ️ INFO:   Price Delta: 0.00053
28/01/2025 15:45:03.002 | Info | [15:45:03] ℹ️ INFO:   Peak FD: 1.742
28/01/2025 15:45:03.002 | Info | [15:45:03] ℹ️ INFO: ════════════════════════════════════════
28/01/2025 15:45:03.002 | Info | [15:45:03] ℹ️ INFO: ⏳ Waiting for TIP confirmation (Threshold: 1.1)...
28/01/2025 15:45:03.402 | Info | [15:45:03] ℹ️ INFO: 🔥 TIP CONFIRMED - Z-Score: 1.44
28/01/2025 15:45:03.402 | Trade | Executing Market Order to Sell 248000 EURUSD (SL: 17.1)
28/01/2025 15:45:03.402 | Trade | → Executing Market Order to Sell 248000 EURUSD (SL: 17.1) SUCCEEDED, Position PID7
28/01/2025 15:45:03.402 | Info | [15:45:03] ℹ️ INFO: ════════════════════════════════════════
28/01/2025 15:45:03.402 | Info | [15:45:03] ℹ️ INFO: 🚀 TRADE EXECUTED - TIP Triggered
28/01/2025 15:45:03.402 | Info | [15:45:03] ℹ️ INFO: Position: 7
28/01/2025 15:45:03.402 | Info | [15:45:03] ℹ️ INFO: Direction: Sell
28/01/2025 15:45:03.402 | Info | [15:45:03] ℹ️ INFO: Entry: 1.04308
28/01/2025 15:45:03.402 | Info | [15:45:03] ℹ️ INFO: Volume: 248.00 lots
28/01/2025 15:45:03.402 | Info | [15:45:03] ℹ️ INFO: Stop: 17.1 pips (Min: 15)
28/01/2025 15:45:03.402 | Info | [15:45:03] ℹ️ INFO: Risk: $365.40
28/01/2025 15:45:03.402 | Info | [15:45:03] ℹ️ INFO: TP1: 1.04137
28/01/2025 15:45:03.402 | Info | [15:45:03] ℹ️ INFO: TP2: 1.03675
28/01/2025 15:45:03.402 | Info | [15:45:03] ℹ️ INFO: P-Zero: 1.04137
28/01/2025 15:45:03.402 | Info | [15:45:03] ℹ️ INFO: Stretch: 17.1 pips
28/01/2025 15:45:03.402 | Info | [15:45:03] ℹ️ INFO: ════════════════════════════════════════
28/01/2025 16:00:00.603 | Info | [16:00:00] ℹ️ INFO: 🌀 CHAOS STARTED - Bar: 733, Price: 1.04242, FD: 1.680
28/01/2025 16:15:00.403 | Info | [16:15:00] ℹ️ INFO: 🔄 TREND REVERSAL - Pos 7
28/01/2025 16:15:00.403 | Trade | Closing position PID7 (Volume: 248000)
28/01/2025 16:15:00.403 | Trade | → Closing position PID7 (Volume: 248000) SUCCEEDED
28/01/2025 16:15:00.403 | Info | [16:15:00] ℹ️ INFO: ✅ Closed 7
28/01/2025 16:15:00.403 | Info | [16:15:00] ℹ️ INFO: ════════════════════════════════════════
28/01/2025 16:15:00.403 | Info | [16:15:00] ℹ️ INFO: 📊 POSITION CLOSED
28/01/2025 16:15:00.403 | Info | [16:15:00] ℹ️ INFO: ID: 7
28/01/2025 16:15:00.403 | Info | [16:15:00] ℹ️ INFO: Direction: Sell
28/01/2025 16:15:00.403 | Info | [16:15:00] ℹ️ INFO: Entry: 1.04308
28/01/2025 16:15:00.403 | Info | [16:15:00] ℹ️ INFO: P&L: $21.33
28/01/2025 16:15:00.403 | Info | [16:15:00] ℹ️ INFO: Pips: 1.9
28/01/2025 16:15:00.403 | Info | [16:15:00] ℹ️ INFO: Reason: Closed
28/01/2025 16:15:00.403 | Info | [16:15:00] ℹ️ INFO: ════════════════════════════════════════
28/01/2025 17:30:00.119 | Info | [17:30:00] ℹ️ INFO: 🔻 FRACTAL PEAK DETECTED - Bar: 736, Peak Price: 1.04261, Start Price: 1.04242, FD: 1.698
28/01/2025 17:30:00.119 | Info | [17:30:00] ℹ️ INFO: ════════════════════════════════════════
28/01/2025 17:30:00.119 | Info | [17:30:00] ℹ️ INFO: 🎯 SIGNAL DETECTED: CORRECTION (Price rose)
28/01/2025 17:30:00.119 | Info | [17:30:00] ℹ️ INFO:   Direction: Sell
28/01/2025 17:30:00.119 | Info | [17:30:00] ℹ️ INFO:   Trend: DOWN
28/01/2025 17:30:00.119 | Info | [17:30:00] ℹ️ INFO:   Peak Price: 1.04261
28/01/2025 17:30:00.119 | Info | [17:30:00] ℹ️ INFO:   Start Price: 1.04242
28/01/2025 17:30:00.119 | Info | [17:30:00] ℹ️ INFO:   Price Delta: 0.00019
28/01/2025 17:30:00.119 | Info | [17:30:00] ℹ️ INFO:   Peak FD: 1.698
28/01/2025 17:30:00.119 | Info | [17:30:00] ℹ️ INFO: ════════════════════════════════════════
28/01/2025 17:30:00.119 | Info | [17:30:00] ℹ️ INFO: ⏳ Waiting for TIP confirmation (Threshold: 1.1)...
28/01/2025 17:45:01.401 | Info | [17:45:01] ℹ️ INFO: ════════════════════════════════════════
28/01/2025 17:45:01.401 | Info | [17:45:01] ℹ️ INFO: 🎯 SIGNAL DETECTED: CORRECTION (Price rose)
28/01/2025 17:45:01.401 | Info | [17:45:01] ℹ️ INFO:   Direction: Sell
28/01/2025 17:45:01.401 | Info | [17:45:01] ℹ️ INFO:   Trend: DOWN
28/01/2025 17:45:01.401 | Info | [17:45:01] ℹ️ INFO:   Peak Price: 1.04261
28/01/2025 17:45:01.401 | Info | [17:45:01] ℹ️ INFO:   Start Price: 1.04242
28/01/2025 17:45:01.401 | Info | [17:45:01] ℹ️ INFO:   Price Delta: 0.00019
28/01/2025 17:45:01.401 | Info | [17:45:01] ℹ️ INFO:   Peak FD: 1.698
28/01/2025 17:45:01.401 | Info | [17:45:01] ℹ️ INFO: ════════════════════════════════════════
28/01/2025 17:45:01.401 | Info | [17:45:01] ℹ️ INFO: ⏳ Waiting for TIP confirmation (Threshold: 1.1)...
28/01/2025 18:00:00.202 | Info | [18:00:00] ℹ️ INFO: ════════════════════════════════════════
28/01/2025 18:00:00.202 | Info | [18:00:00] ℹ️ INFO: 🎯 SIGNAL DETECTED: CORRECTION (Price rose)
28/01/2025 18:00:00.202 | Info | [18:00:00] ℹ️ INFO:   Direction: Sell
28/01/2025 18:00:00.202 | Info | [18:00:00] ℹ️ INFO:   Trend: DOWN
28/01/2025 18:00:00.202 | Info | [18:00:00] ℹ️ INFO:   Peak Price: 1.04261
28/01/2025 18:00:00.202 | Info | [18:00:00] ℹ️ INFO:   Start Price: 1.04242
28/01/2025 18:00:00.202 | Info | [18:00:00] ℹ️ INFO:   Price Delta: 0.00019
28/01/2025 18:00:00.202 | Info | [18:00:00] ℹ️ INFO:   Peak FD: 1.698
28/01/2025 18:00:00.202 | Info | [18:00:00] ℹ️ INFO: ════════════════════════════════════════
28/01/2025 18:00:00.202 | Info | [18:00:00] ℹ️ INFO: ⏳ Waiting for TIP confirmation (Threshold: 1.1)...
28/01/2025 18:15:07.001 | Info | [18:15:07] ℹ️ INFO: ════════════════════════════════════════
28/01/2025 18:15:07.001 | Info | [18:15:07] ℹ️ INFO: 🎯 SIGNAL DETECTED: CORRECTION (Price rose)
28/01/2025 18:15:07.001 | Info | [18:15:07] ℹ️ INFO:   Direction: Sell
28/01/2025 18:15:07.001 | Info | [18:15:07] ℹ️ INFO:   Trend: DOWN
28/01/2025 18:15:07.001 | Info | [18:15:07] ℹ️ INFO:   Peak Price: 1.04261
28/01/2025 18:15:07.001 | Info | [18:15:07] ℹ️ INFO:   Start Price: 1.04242
28/01/2025 18:15:07.001 | Info | [18:15:07] ℹ️ INFO:   Price Delta: 0.00019
28/01/2025 18:15:07.001 | Info | [18:15:07] ℹ️ INFO:   Peak FD: 1.698
28/01/2025 18:15:07.001 | Info | [18:15:07] ℹ️ INFO: ════════════════════════════════════════
28/01/2025 18:15:07.001 | Info | [18:15:07] ℹ️ INFO: ⏳ Waiting for TIP confirmation (Threshold: 1.1)...
28/01/2025 18:30:00.202 | Info | [18:30:00] ℹ️ INFO: ════════════════════════════════════════
28/01/2025 18:30:00.202 | Info | [18:30:00] ℹ️ INFO: 🎯 SIGNAL DETECTED: REVERSAL (Price spiked against trend)
28/01/2025 18:30:00.202 | Info | [18:30:00] ℹ️ INFO:   Direction: Sell
28/01/2025 18:30:00.202 | Info | [18:30:00] ℹ️ INFO:   Trend: UP
28/01/2025 18:30:00.202 | Info | [18:30:00] ℹ️ INFO:   Peak Price: 1.04261
28/01/2025 18:30:00.202 | Info | [18:30:00] ℹ️ INFO:   Start Price: 1.04242
28/01/2025 18:30:00.202 | Info | [18:30:00] ℹ️ INFO:   Price Delta: 0.00019
28/01/2025 18:30:00.202 | Info | [18:30:00] ℹ️ INFO:   Peak FD: 1.698
28/01/2025 18:30:00.202 | Info | [18:30:00] ℹ️ INFO: ════════════════════════════════════════
28/01/2025 18:30:00.202 | Info | [18:30:00] ℹ️ INFO: ⏳ Waiting for TIP confirmation (Threshold: 1.1)...
28/01/2025 18:30:01.201 | Info | [18:30:01] ℹ️ INFO: 🔥 TIP CONFIRMED - Z-Score: 1.99
28/01/2025 18:30:01.201 | Trade | Executing Market Order to Sell 260000 EURUSD (SL: 16.4)
28/01/2025 18:30:01.201 | Trade | → Executing Market Order to Sell 260000 EURUSD (SL: 16.4) SUCCEEDED, Position PID8
28/01/2025 18:30:01.201 | Info | [18:30:01] ℹ️ INFO: ════════════════════════════════════════
28/01/2025 18:30:01.201 | Info | [18:30:01] ℹ️ INFO: 🚀 TRADE EXECUTED - TIP Triggered
28/01/2025 18:30:01.201 | Info | [18:30:01] ℹ️ INFO: Position: 8
28/01/2025 18:30:01.201 | Info | [18:30:01] ℹ️ INFO: Direction: Sell
28/01/2025 18:30:01.201 | Info | [18:30:01] ℹ️ INFO: Entry: 1.04346
28/01/2025 18:30:01.201 | Info | [18:30:01] ℹ️ INFO: Volume: 260.00 lots
28/01/2025 18:30:01.201 | Info | [18:30:01] ℹ️ INFO: Stop: 16.4 pips (Min: 15)
28/01/2025 18:30:01.201 | Info | [18:30:01] ℹ️ INFO: Risk: $366.17
28/01/2025 18:30:01.201 | Info | [18:30:01] ℹ️ INFO: TP1: 1.04210
28/01/2025 18:30:01.201 | Info | [18:30:01] ℹ️ INFO: TP2: 1.03843
28/01/2025 18:30:01.201 | Info | [18:30:01] ℹ️ INFO: P-Zero: 1.04210
28/01/2025 18:30:01.201 | Info | [18:30:01] ℹ️ INFO: Stretch: 13.6 pips
28/01/2025 18:30:01.201 | Info | [18:30:01] ℹ️ INFO: ════════════════════════════════════════
28/01/2025 18:45:00.401 | Info | [18:45:00] ℹ️ INFO: 🌀 CHAOS STARTED - Bar: 744, Price: 1.04253, FD: 1.739
28/01/2025 19:00:01.002 | Info | [19:00:01] ℹ️ INFO: 🔄 TREND REVERSAL - Pos 8
28/01/2025 19:00:01.002 | Trade | Closing position PID8 (Volume: 260000)
28/01/2025 19:00:01.002 | Trade | → Closing position PID8 (Volume: 260000) SUCCEEDED
28/01/2025 19:00:01.002 | Info | [19:00:01] ℹ️ INFO: ✅ Closed 8
28/01/2025 19:00:01.002 | Info | [19:00:01] ℹ️ INFO: ════════════════════════════════════════
28/01/2025 19:00:01.002 | Info | [19:00:01] ℹ️ INFO: 📊 POSITION CLOSED
28/01/2025 19:00:01.002 | Info | [19:00:01] ℹ️ INFO: ID: 8
28/01/2025 19:00:01.002 | Info | [19:00:01] ℹ️ INFO: Direction: Sell
28/01/2025 19:00:01.002 | Info | [19:00:01] ℹ️ INFO: Entry: 1.04346
28/01/2025 19:00:01.002 | Info | [19:00:01] ℹ️ INFO: P&L: $165.49
28/01/2025 19:00:01.002 | Info | [19:00:01] ℹ️ INFO: Pips: 8.3
28/01/2025 19:00:01.002 | Info | [19:00:01] ℹ️ INFO: Reason: Closed
28/01/2025 19:00:01.002 | Info | [19:00:01] ℹ️ INFO: ════════════════════════════════════════
28/01/2025 20:15:00.905 | Info | [20:15:00] ℹ️ INFO: 🔻 FRACTAL PEAK DETECTED - Bar: 747, Peak Price: 1.04321, Start Price: 1.04253, FD: 1.751
28/01/2025 20:15:00.905 | Info | [20:15:00] ℹ️ INFO: ════════════════════════════════════════
28/01/2025 20:15:00.905 | Info | [20:15:00] ℹ️ INFO: 🎯 SIGNAL DETECTED: REVERSAL (Price spiked against trend)
28/01/2025 20:15:00.905 | Info | [20:15:00] ℹ️ INFO:   Direction: Sell
28/01/2025 20:15:00.905 | Info | [20:15:00] ℹ️ INFO:   Trend: UP
28/01/2025 20:15:00.905 | Info | [20:15:00] ℹ️ INFO:   Peak Price: 1.04321
28/01/2025 20:15:00.905 | Info | [20:15:00] ℹ️ INFO:   Start Price: 1.04253
28/01/2025 20:15:00.905 | Info | [20:15:00] ℹ️ INFO:   Price Delta: 0.00068
28/01/2025 20:15:00.905 | Info | [20:15:00] ℹ️ INFO:   Peak FD: 1.751
28/01/2025 20:15:00.905 | Info | [20:15:00] ℹ️ INFO: ════════════════════════════════════════
28/01/2025 20:15:00.905 | Info | [20:15:00] ℹ️ INFO: ⏳ Waiting for TIP confirmation (Threshold: 1.1)...
28/01/2025 20:30:00.202 | Info | [20:30:00] ℹ️ INFO: ════════════════════════════════════════
28/01/2025 20:30:00.202 | Info | [20:30:00] ℹ️ INFO: 🎯 SIGNAL DETECTED: REVERSAL (Price spiked against trend)
28/01/2025 20:30:00.202 | Info | [20:30:00] ℹ️ INFO:   Direction: Sell
28/01/2025 20:30:00.202 | Info | [20:30:00] ℹ️ INFO:   Trend: UP
28/01/2025 20:30:00.202 | Info | [20:30:00] ℹ️ INFO:   Peak Price: 1.04321
28/01/2025 20:30:00.202 | Info | [20:30:00] ℹ️ INFO:   Start Price: 1.04253
28/01/2025 20:30:00.202 | Info | [20:30:00] ℹ️ INFO:   Price Delta: 0.00068
28/01/2025 20:30:00.202 | Info | [20:30:00] ℹ️ INFO:   Peak FD: 1.751
28/01/2025 20:30:00.202 | Info | [20:30:00] ℹ️ INFO: ════════════════════════════════════════
28/01/2025 20:30:00.202 | Info | [20:30:00] ℹ️ INFO: ⏳ Waiting for TIP confirmation (Threshold: 1.1)...
28/01/2025 20:45:00.203 | Info | [20:45:00] ℹ️ INFO: ════════════════════════════════════════
28/01/2025 20:45:00.203 | Info | [20:45:00] ℹ️ INFO: 🎯 SIGNAL DETECTED: REVERSAL (Price spiked against trend)
28/01/2025 20:45:00.203 | Info | [20:45:00] ℹ️ INFO:   Direction: Sell
28/01/2025 20:45:00.203 | Info | [20:45:00] ℹ️ INFO:   Trend: UP
28/01/2025 20:45:00.203 | Info | [20:45:00] ℹ️ INFO:   Peak Price: 1.04321
28/01/2025 20:45:00.203 | Info | [20:45:00] ℹ️ INFO:   Start Price: 1.04253
28/01/2025 20:45:00.203 | Info | [20:45:00] ℹ️ INFO:   Price Delta: 0.00068
28/01/2025 20:45:00.203 | Info | [20:45:00] ℹ️ INFO:   Peak FD: 1.751
28/01/2025 20:45:00.203 | Info | [20:45:00] ℹ️ INFO: ════════════════════════════════════════
28/01/2025 20:45:00.203 | Info | [20:45:00] ℹ️ INFO: ⏳ Waiting for TIP confirmation (Threshold: 1.1)...
28/01/2025 21:00:00.007 | Info | [21:00:00] ℹ️ INFO: ════════════════════════════════════════
28/01/2025 21:00:00.007 | Info | [21:00:00] ℹ️ INFO: 🎯 SIGNAL DETECTED: REVERSAL (Price spiked against trend)
28/01/2025 21:00:00.007 | Info | [21:00:00] ℹ️ INFO:   Direction: Sell
28/01/2025 21:00:00.007 | Info | [21:00:00] ℹ️ INFO:   Trend: UP
28/01/2025 21:00:00.007 | Info | [21:00:00] ℹ️ INFO:   Peak Price: 1.04321
28/01/2025 21:00:00.007 | Info | [21:00:00] ℹ️ INFO:   Start Price: 1.04253
28/01/2025 21:00:00.007 | Info | [21:00:00] ℹ️ INFO:   Price Delta: 0.00068
28/01/2025 21:00:00.007 | Info | [21:00:00] ℹ️ INFO:   Peak FD: 1.751
28/01/2025 21:00:00.007 | Info | [21:00:00] ℹ️ INFO: ════════════════════════════════════════
28/01/2025 21:00:00.007 | Info | [21:00:00] ℹ️ INFO: ⏳ Waiting for TIP confirmation (Threshold: 1.1)...
28/01/2025 21:15:03.001 | Info | [21:15:03] ℹ️ INFO: ════════════════════════════════════════
28/01/2025 21:15:03.001 | Info | [21:15:03] ℹ️ INFO: 🎯 SIGNAL DETECTED: REVERSAL (Price spiked against trend)
28/01/2025 21:15:03.001 | Info | [21:15:03] ℹ️ INFO:   Direction: Sell
28/01/2025 21:15:03.001 | Info | [21:15:03] ℹ️ INFO:   Trend: UP
28/01/2025 21:15:03.001 | Info | [21:15:03] ℹ️ INFO:   Peak Price: 1.04321
28/01/2025 21:15:03.001 | Info | [21:15:03] ℹ️ INFO:   Start Price: 1.04253
28/01/2025 21:15:03.001 | Info | [21:15:03] ℹ️ INFO:   Price Delta: 0.00068
28/01/2025 21:15:03.001 | Info | [21:15:03] ℹ️ INFO:   Peak FD: 1.751
28/01/2025 21:15:03.001 | Info | [21:15:03] ℹ️ INFO: ════════════════════════════════════════
28/01/2025 21:15:03.001 | Info | [21:15:03] ℹ️ INFO: ⏳ Waiting for TIP confirmation (Threshold: 1.1)...
28/01/2025 22:01:05.606 | Info | [22:01:05] ⚠️ WARN: ⚠️ Signal [REVERSAL (Price spiked against trend)] BLOCKED - TOXIC market (Score: 64.00)
28/01/2025 22:15:05.802 | Info | [22:15:05] ⚠️ WARN: ⚠️ Signal [CORRECTION (Price rose)] BLOCKED - TOXIC market (Score: 24.00)
28/01/2025 22:30:07.803 | Info | [22:30:07] ⚠️ WARN: ⚠️ Signal [CORRECTION (Price rose)] BLOCKED - TOXIC market (Score: 10.50)
28/01/2025 22:45:00.303 | Info | [22:45:00] ℹ️ INFO: ════════════════════════════════════════
28/01/2025 22:45:00.303 | Info | [22:45:00] ℹ️ INFO: 🎯 SIGNAL DETECTED: CORRECTION (Price rose)
28/01/2025 22:45:00.303 | Info | [22:45:00] ℹ️ INFO:   Direction: Sell
28/01/2025 22:45:00.303 | Info | [22:45:00] ℹ️ INFO:   Trend: DOWN
28/01/2025 22:45:00.303 | Info | [22:45:00] ℹ️ INFO:   Peak Price: 1.04321
28/01/2025 22:45:00.303 | Info | [22:45:00] ℹ️ INFO:   Start Price: 1.04253
28/01/2025 22:45:00.303 | Info | [22:45:00] ℹ️ INFO:   Price Delta: 0.00068
28/01/2025 22:45:00.303 | Info | [22:45:00] ℹ️ INFO:   Peak FD: 1.751
28/01/2025 22:45:00.303 | Info | [22:45:00] ℹ️ INFO: ════════════════════════════════════════
28/01/2025 22:45:00.303 | Info | [22:45:00] ℹ️ INFO: ⏳ Waiting for TIP confirmation (Threshold: 1.1)...
28/01/2025 23:00:00.201 | Info | [23:00:00] ℹ️ INFO: ════════════════════════════════════════
28/01/2025 23:00:00.201 | Info | [23:00:00] ℹ️ INFO: 🎯 SIGNAL DETECTED: CORRECTION (Price rose)
28/01/2025 23:00:00.201 | Info | [23:00:00] ℹ️ INFO:   Direction: Sell
28/01/2025 23:00:00.201 | Info | [23:00:00] ℹ️ INFO:   Trend: DOWN
28/01/2025 23:00:00.201 | Info | [23:00:00] ℹ️ INFO:   Peak Price: 1.04321
28/01/2025 23:00:00.201 | Info | [23:00:00] ℹ️ INFO:   Start Price: 1.04253
28/01/2025 23:00:00.201 | Info | [23:00:00] ℹ️ INFO:   Price Delta: 0.00068
28/01/2025 23:00:00.201 | Info | [23:00:00] ℹ️ INFO:   Peak FD: 1.751
28/01/2025 23:00:00.201 | Info | [23:00:00] ℹ️ INFO: ════════════════════════════════════════
28/01/2025 23:00:00.201 | Info | [23:00:00] ℹ️ INFO: ⏳ Waiting for TIP confirmation (Threshold: 1.1)...
28/01/2025 23:15:00.103 | Info | [23:15:00] ℹ️ INFO: ════════════════════════════════════════
28/01/2025 23:15:00.103 | Info | [23:15:00] ℹ️ INFO: 🎯 SIGNAL DETECTED: CORRECTION (Price rose)
28/01/2025 23:15:00.103 | Info | [23:15:00] ℹ️ INFO:   Direction: Sell
28/01/2025 23:15:00.103 | Info | [23:15:00] ℹ️ INFO:   Trend: DOWN
28/01/2025 23:15:00.103 | Info | [23:15:00] ℹ️ INFO:   Peak Price: 1.04321
28/01/2025 23:15:00.103 | Info | [23:15:00] ℹ️ INFO:   Start Price: 1.04253
28/01/2025 23:15:00.103 | Info | [23:15:00] ℹ️ INFO:   Price Delta: 0.00068
28/01/2025 23:15:00.103 | Info | [23:15:00] ℹ️ INFO:   Peak FD: 1.751
28/01/2025 23:15:00.103 | Info | [23:15:00] ℹ️ INFO: ════════════════════════════════════════
28/01/2025 23:15:00.103 | Info | [23:15:00] ℹ️ INFO: ⏳ Waiting for TIP confirmation (Threshold: 1.1)...
28/01/2025 23:30:07.504 | Info | [23:30:07] ℹ️ INFO: ════════════════════════════════════════
[...]
03/02/2025 13:05:20.404 | Trade | → Modifying position PID14 (SL: 1.02551, TP: 1.02956) SUCCEEDED, Position PID14
03/02/2025 13:05:22.104 | Trade | Modifying position PID14 (SL: 1.02562, TP: 1.02956)
03/02/2025 13:05:22.104 | Trade | → Modifying position PID14 (SL: 1.02562, TP: 1.02956) SUCCEEDED, Position PID14
03/02/2025 13:05:22.406 | Trade | Modifying position PID14 (SL: 1.02565, TP: 1.02956)
03/02/2025 13:05:22.406 | Trade | → Modifying position PID14 (SL: 1.02565, TP: 1.02956) SUCCEEDED, Position PID14
03/02/2025 13:05:22.706 | Trade | Modifying position PID14 (SL: 1.02566, TP: 1.02956)
03/02/2025 13:05:22.706 | Trade | → Modifying position PID14 (SL: 1.02566, TP: 1.02956) SUCCEEDED, Position PID14
03/02/2025 13:05:23.103 | Trade | Modifying position PID14 (SL: 1.02569, TP: 1.02956)
03/02/2025 13:05:23.103 | Trade | → Modifying position PID14 (SL: 1.02569, TP: 1.02956) SUCCEEDED, Position PID14
03/02/2025 13:05:23.808 | Trade | Modifying position PID14 (SL: 1.0257, TP: 1.02956)
03/02/2025 13:05:23.808 | Trade | → Modifying position PID14 (SL: 1.0257, TP: 1.02956) SUCCEEDED, Position PID14
03/02/2025 13:05:24.802 | Trade | Modifying position PID14 (SL: 1.02572, TP: 1.02956)
03/02/2025 13:05:24.802 | Trade | → Modifying position PID14 (SL: 1.02572, TP: 1.02956) SUCCEEDED, Position PID14
03/02/2025 13:05:25.103 | Trade | Modifying position PID14 (SL: 1.02573, TP: 1.02956)
03/02/2025 13:05:25.103 | Trade | → Modifying position PID14 (SL: 1.02573, TP: 1.02956) SUCCEEDED, Position PID14
03/02/2025 13:05:25.403 | Trade | Modifying position PID14 (SL: 1.02574, TP: 1.02956)
03/02/2025 13:05:25.403 | Trade | → Modifying position PID14 (SL: 1.02574, TP: 1.02956) SUCCEEDED, Position PID14
03/02/2025 13:05:26.704 | Trade | Modifying position PID14 (SL: 1.02579, TP: 1.02956)
03/02/2025 13:05:26.704 | Trade | → Modifying position PID14 (SL: 1.02579, TP: 1.02956) SUCCEEDED, Position PID14
03/02/2025 14:02:08.806 | Info | [14:02:08] ℹ️ INFO: ════════════════════════════════════════
03/02/2025 14:02:08.806 | Info | [14:02:08] ℹ️ INFO: 📊 POSITION CLOSED
03/02/2025 14:02:08.806 | Info | [14:02:08] ℹ️ INFO: ID: 14
03/02/2025 14:02:08.806 | Info | [14:02:08] ℹ️ INFO: Direction: Buy
03/02/2025 14:02:08.806 | Info | [14:02:08] ℹ️ INFO: Entry: 1.02390
03/02/2025 14:02:08.806 | Info | [14:02:08] ℹ️ INFO: P&L: $43.12
03/02/2025 14:02:08.806 | Info | [14:02:08] ℹ️ INFO: Pips: 18.8
03/02/2025 14:02:08.806 | Info | [14:02:08] ℹ️ INFO: Reason: StopLoss
03/02/2025 14:02:08.806 | Info | [14:02:08] ℹ️ INFO: ════════════════════════════════════════
03/02/2025 14:15:00.101 | Info | [14:15:00] ℹ️ INFO: ════════════════════════════════════════
03/02/2025 14:15:00.101 | Info | [14:15:00] ℹ️ INFO: 🎯 SIGNAL DETECTED: REVERSAL (Price spiked against trend)
03/02/2025 14:15:00.101 | Info | [14:15:00] ℹ️ INFO:   Direction: Sell
03/02/2025 14:15:00.101 | Info | [14:15:00] ℹ️ INFO:   Trend: UP
03/02/2025 14:15:00.101 | Info | [14:15:00] ℹ️ INFO:   Peak Price: 1.02539
03/02/2025 14:15:00.101 | Info | [14:15:00] ℹ️ INFO:   Start Price: 1.02490
03/02/2025 14:15:00.101 | Info | [14:15:00] ℹ️ INFO:   Price Delta: 0.00049
03/02/2025 14:15:00.101 | Info | [14:15:00] ℹ️ INFO:   Peak FD: 1.725
03/02/2025 14:15:00.101 | Info | [14:15:00] ℹ️ INFO: ════════════════════════════════════════
03/02/2025 14:15:00.101 | Info | [14:15:00] ℹ️ INFO: ⏳ Waiting for TIP confirmation (Threshold: 1.1)...
03/02/2025 14:30:00.102 | Info | [14:30:00] ℹ️ INFO: ════════════════════════════════════════
03/02/2025 14:30:00.102 | Info | [14:30:00] ℹ️ INFO: 🎯 SIGNAL DETECTED: REVERSAL (Price spiked against trend)
03/02/2025 14:30:00.102 | Info | [14:30:00] ℹ️ INFO:   Direction: Sell
03/02/2025 14:30:00.102 | Info | [14:30:00] ℹ️ INFO:   Trend: UP
03/02/2025 14:30:00.102 | Info | [14:30:00] ℹ️ INFO:   Peak Price: 1.02539
03/02/2025 14:30:00.102 | Info | [14:30:00] ℹ️ INFO:   Start Price: 1.02490
03/02/2025 14:30:00.102 | Info | [14:30:00] ℹ️ INFO:   Price Delta: 0.00049
03/02/2025 14:30:00.102 | Info | [14:30:00] ℹ️ INFO:   Peak FD: 1.725
03/02/2025 14:30:00.102 | Info | [14:30:00] ℹ️ INFO: ════════════════════════════════════════
03/02/2025 14:30:00.102 | Info | [14:30:00] ℹ️ INFO: ⏳ Waiting for TIP confirmation (Threshold: 1.1)...
03/02/2025 14:45:00.402 | Info | [14:45:00] ℹ️ INFO: ════════════════════════════════════════
03/02/2025 14:45:00.402 | Info | [14:45:00] ℹ️ INFO: 🎯 SIGNAL DETECTED: CORRECTION (Price rose)
03/02/2025 14:45:00.402 | Info | [14:45:00] ℹ️ INFO:   Direction: Sell
03/02/2025 14:45:00.402 | Info | [14:45:00] ℹ️ INFO:   Trend: DOWN
03/02/2025 14:45:00.402 | Info | [14:45:00] ℹ️ INFO:   Peak Price: 1.02539
03/02/2025 14:45:00.402 | Info | [14:45:00] ℹ️ INFO:   Start Price: 1.02490
03/02/2025 14:45:00.402 | Info | [14:45:00] ℹ️ INFO:   Price Delta: 0.00049
03/02/2025 14:45:00.402 | Info | [14:45:00] ℹ️ INFO:   Peak FD: 1.725
03/02/2025 14:45:00.402 | Info | [14:45:00] ℹ️ INFO: ════════════════════════════════════════
03/02/2025 14:45:00.402 | Info | [14:45:00] ℹ️ INFO: ⏳ Waiting for TIP confirmation (Threshold: 1.1)...
03/02/2025 15:00:00.157 | Info | [15:00:00] ℹ️ INFO: ════════════════════════════════════════
03/02/2025 15:00:00.157 | Info | [15:00:00] ℹ️ INFO: 🎯 SIGNAL DETECTED: CORRECTION (Price rose)
03/02/2025 15:00:00.157 | Info | [15:00:00] ℹ️ INFO:   Direction: Sell
03/02/2025 15:00:00.157 | Info | [15:00:00] ℹ️ INFO:   Trend: DOWN
03/02/2025 15:00:00.157 | Info | [15:00:00] ℹ️ INFO:   Peak Price: 1.02539
03/02/2025 15:00:00.157 | Info | [15:00:00] ℹ️ INFO:   Start Price: 1.02490
03/02/2025 15:00:00.157 | Info | [15:00:00] ℹ️ INFO:   Price Delta: 0.00049
03/02/2025 15:00:00.157 | Info | [15:00:00] ℹ️ INFO:   Peak FD: 1.725
03/02/2025 15:00:00.157 | Info | [15:00:00] ℹ️ INFO: ════════════════════════════════════════
03/02/2025 15:00:00.157 | Info | [15:00:00] ℹ️ INFO: ⏳ Waiting for TIP confirmation (Threshold: 1.1)...
03/02/2025 15:15:00.702 | Info | [15:15:00] ℹ️ INFO: ════════════════════════════════════════
03/02/2025 15:15:00.702 | Info | [15:15:00] ℹ️ INFO: 🎯 SIGNAL DETECTED: CORRECTION (Price rose)
03/02/2025 15:15:00.702 | Info | [15:15:00] ℹ️ INFO:   Direction: Sell
03/02/2025 15:15:00.702 | Info | [15:15:00] ℹ️ INFO:   Trend: DOWN
03/02/2025 15:15:00.702 | Info | [15:15:00] ℹ️ INFO:   Peak Price: 1.02539
03/02/2025 15:15:00.702 | Info | [15:15:00] ℹ️ INFO:   Start Price: 1.02490
03/02/2025 15:15:00.702 | Info | [15:15:00] ℹ️ INFO:   Price Delta: 0.00049
03/02/2025 15:15:00.702 | Info | [15:15:00] ℹ️ INFO:   Peak FD: 1.725
03/02/2025 15:15:00.702 | Info | [15:15:00] ℹ️ INFO: ════════════════════════════════════════
03/02/2025 15:15:00.702 | Info | [15:15:00] ℹ️ INFO: ⏳ Waiting for TIP confirmation (Threshold: 1.1)...
03/02/2025 15:30:00.202 | Info | [15:30:00] ℹ️ INFO: ════════════════════════════════════════
03/02/2025 15:30:00.202 | Info | [15:30:00] ℹ️ INFO: 🎯 SIGNAL DETECTED: REVERSAL (Price spiked against trend)
03/02/2025 15:30:00.202 | Info | [15:30:00] ℹ️ INFO:   Direction: Sell
03/02/2025 15:30:00.202 | Info | [15:30:00] ℹ️ INFO:   Trend: UP
03/02/2025 15:30:00.202 | Info | [15:30:00] ℹ️ INFO:   Peak Price: 1.02539
03/02/2025 15:30:00.202 | Info | [15:30:00] ℹ️ INFO:   Start Price: 1.02490
03/02/2025 15:30:00.202 | Info | [15:30:00] ℹ️ INFO:   Price Delta: 0.00049
03/02/2025 15:30:00.202 | Info | [15:30:00] ℹ️ INFO:   Peak FD: 1.725
03/02/2025 15:30:00.202 | Info | [15:30:00] ℹ️ INFO: ════════════════════════════════════════
03/02/2025 15:30:00.202 | Info | [15:30:00] ℹ️ INFO: ⏳ Waiting for TIP confirmation (Threshold: 1.1)...
03/02/2025 15:45:00.107 | Info | [15:45:00] ℹ️ INFO: ════════════════════════════════════════
03/02/2025 15:45:00.107 | Info | [15:45:00] ℹ️ INFO: 🎯 SIGNAL DETECTED: REVERSAL (Price spiked against trend)
03/02/2025 15:45:00.107 | Info | [15:45:00] ℹ️ INFO:   Direction: Sell
03/02/2025 15:45:00.107 | Info | [15:45:00] ℹ️ INFO:   Trend: UP
03/02/2025 15:45:00.107 | Info | [15:45:00] ℹ️ INFO:   Peak Price: 1.02539
03/02/2025 15:45:00.107 | Info | [15:45:00] ℹ️ INFO:   Start Price: 1.02490
03/02/2025 15:45:00.107 | Info | [15:45:00] ℹ️ INFO:   Price Delta: 0.00049
03/02/2025 15:45:00.107 | Info | [15:45:00] ℹ️ INFO:   Peak FD: 1.725
03/02/2025 15:45:00.107 | Info | [15:45:00] ℹ️ INFO: ════════════════════════════════════════
03/02/2025 15:45:00.107 | Info | [15:45:00] ℹ️ INFO: ⏳ Waiting for TIP confirmation (Threshold: 1.1)...
03/02/2025 16:00:00.023 | Info | [16:00:00] ℹ️ INFO: ════════════════════════════════════════
03/02/2025 16:00:00.023 | Info | [16:00:00] ℹ️ INFO: 🎯 SIGNAL DETECTED: REVERSAL (Price spiked against trend)
03/02/2025 16:00:00.023 | Info | [16:00:00] ℹ️ INFO:   Direction: Sell
03/02/2025 16:00:00.023 | Info | [16:00:00] ℹ️ INFO:   Trend: UP
03/02/2025 16:00:00.023 | Info | [16:00:00] ℹ️ INFO:   Peak Price: 1.02539
03/02/2025 16:00:00.023 | Info | [16:00:00] ℹ️ INFO:   Start Price: 1.02490
03/02/2025 16:00:00.023 | Info | [16:00:00] ℹ️ INFO:   Price Delta: 0.00049
03/02/2025 16:00:00.023 | Info | [16:00:00] ℹ️ INFO:   Peak FD: 1.725
03/02/2025 16:00:00.023 | Info | [16:00:00] ℹ️ INFO: ════════════════════════════════════════
03/02/2025 16:00:00.023 | Info | [16:00:00] ℹ️ INFO: ⏳ Waiting for TIP confirmation (Threshold: 1.1)...
03/02/2025 16:00:00.403 | Info | [16:00:00] ℹ️ INFO: 🔥 TIP CONFIRMED - Z-Score: 1.29
03/02/2025 16:00:00.403 | Trade | Executing Market Order to Sell 118000 EURUSD (SL: 40)
03/02/2025 16:00:00.403 | Trade | → Executing Market Order to Sell 118000 EURUSD (SL: 40) SUCCEEDED, Position PID15
03/02/2025 16:00:00.403 | Info | [16:00:00] ℹ️ INFO: ════════════════════════════════════════
03/02/2025 16:00:00.403 | Info | [16:00:00] ℹ️ INFO: 🚀 TRADE EXECUTED - TIP Triggered
03/02/2025 16:00:00.403 | Info | [16:00:00] ℹ️ INFO: Position: 15
03/02/2025 16:00:00.403 | Info | [16:00:00] ℹ️ INFO: Direction: Sell
03/02/2025 16:00:00.403 | Info | [16:00:00] ℹ️ INFO: Entry: 1.03161
03/02/2025 16:00:00.403 | Info | [16:00:00] ℹ️ INFO: Volume: 118.00 lots
03/02/2025 16:00:00.403 | Info | [16:00:00] ℹ️ INFO: Stop: 40.0 pips (Min: 15)
03/02/2025 16:00:00.403 | Info | [16:00:00] ℹ️ INFO: Risk: $404.56
03/02/2025 16:00:00.403 | Info | [16:00:00] ℹ️ INFO: TP1: 1.02364
03/02/2025 16:00:00.403 | Info | [16:00:00] ℹ️ INFO: TP2: 1.00212
03/02/2025 16:00:00.403 | Info | [16:00:00] ℹ️ INFO: P-Zero: 1.02364
03/02/2025 16:00:00.403 | Info | [16:00:00] ℹ️ INFO: Stretch: 79.7 pips
03/02/2025 16:00:00.403 | Info | [16:00:00] ℹ️ INFO: ════════════════════════════════════════
03/02/2025 16:15:00.601 | Info | [16:15:00] ℹ️ INFO: 🌀 CHAOS STARTED - Bar: 1110, Price: 1.03174, FD: 1.669
03/02/2025 17:30:00.801 | Info | [17:30:00] ℹ️ INFO: 🔄 TREND REVERSAL - Pos 15
03/02/2025 17:30:00.801 | Trade | Closing position PID15 (Volume: 118000)
03/02/2025 17:30:00.801 | Trade | → Closing position PID15 (Volume: 118000) SUCCEEDED
03/02/2025 17:30:00.801 | Info | [17:30:00] ℹ️ INFO: ✅ Closed 15
03/02/2025 17:30:00.801 | Info | [17:30:00] ℹ️ INFO: ════════════════════════════════════════
03/02/2025 17:30:00.801 | Info | [17:30:00] ℹ️ INFO: 📊 POSITION CLOSED
03/02/2025 17:30:00.801 | Info | [17:30:00] ℹ️ INFO: ID: 15
03/02/2025 17:30:00.801 | Info | [17:30:00] ℹ️ INFO: Direction: Sell
03/02/2025 17:30:00.801 | Info | [17:30:00] ℹ️ INFO: Entry: 1.03161
03/02/2025 17:30:00.801 | Info | [17:30:00] ℹ️ INFO: P&L: $299.40
03/02/2025 17:30:00.801 | Info | [17:30:00] ℹ️ INFO: Pips: 30.4
03/02/2025 17:30:00.801 | Info | [17:30:00] ℹ️ INFO: Reason: Closed
03/02/2025 17:30:00.801 | Info | [17:30:00] ℹ️ INFO: ════════════════════════════════════════
03/02/2025 17:45:00.203 | Info | [17:45:00] ℹ️ INFO: 🔻 FRACTAL PEAK DETECTED - Bar: 1113, Peak Price: 1.02829, Start Price: 1.03174, FD: 1.692
03/02/2025 17:45:00.203 | Info | [17:45:00] ℹ️ INFO: ════════════════════════════════════════
03/02/2025 17:45:00.203 | Info | [17:45:00] ℹ️ INFO: 🎯 SIGNAL DETECTED: REVERSAL (Price dropped against trend)
03/02/2025 17:45:00.203 | Info | [17:45:00] ℹ️ INFO:   Direction: Buy
03/02/2025 17:45:00.203 | Info | [17:45:00] ℹ️ INFO:   Trend: DOWN
03/02/2025 17:45:00.203 | Info | [17:45:00] ℹ️ INFO:   Peak Price: 1.02829
03/02/2025 17:45:00.203 | Info | [17:45:00] ℹ️ INFO:   Start Price: 1.03174
03/02/2025 17:45:00.203 | Info | [17:45:00] ℹ️ INFO:   Price Delta: -0.00345
03/02/2025 17:45:00.203 | Info | [17:45:00] ℹ️ INFO:   Peak FD: 1.692
03/02/2025 17:45:00.203 | Info | [17:45:00] ℹ️ INFO: ════════════════════════════════════════
03/02/2025 17:45:00.203 | Info | [17:45:00] ℹ️ INFO: ⏳ Waiting for TIP confirmation (Threshold: 1.1)...
03/02/2025 18:00:00.102 | Info | [18:00:00] ℹ️ INFO: ════════════════════════════════════════
03/02/2025 18:00:00.102 | Info | [18:00:00] ℹ️ INFO: 🎯 SIGNAL DETECTED: REVERSAL (Price dropped against trend)
03/02/2025 18:00:00.102 | Info | [18:00:00] ℹ️ INFO:   Direction: Buy
03/02/2025 18:00:00.102 | Info | [18:00:00] ℹ️ INFO:   Trend: DOWN
03/02/2025 18:00:00.102 | Info | [18:00:00] ℹ️ INFO:   Peak Price: 1.02829
03/02/2025 18:00:00.102 | Info | [18:00:00] ℹ️ INFO:   Start Price: 1.03174
03/02/2025 18:00:00.102 | Info | [18:00:00] ℹ️ INFO:   Price Delta: -0.00345
03/02/2025 18:00:00.102 | Info | [18:00:00] ℹ️ INFO:   Peak FD: 1.692
03/02/2025 18:00:00.102 | Info | [18:00:00] ℹ️ INFO: ════════════════════════════════════════
03/02/2025 18:00:00.102 | Info | [18:00:00] ℹ️ INFO: ⏳ Waiting for TIP confirmation (Threshold: 1.1)...
03/02/2025 18:15:01.303 | Info | [18:15:01] ℹ️ INFO: ════════════════════════════════════════
03/02/2025 18:15:01.303 | Info | [18:15:01] ℹ️ INFO: 🎯 SIGNAL DETECTED: REVERSAL (Price dropped against trend)
03/02/2025 18:15:01.303 | Info | [18:15:01] ℹ️ INFO:   Direction: Buy
03/02/2025 18:15:01.303 | Info | [18:15:01] ℹ️ INFO:   Trend: DOWN
03/02/2025 18:15:01.303 | Info | [18:15:01] ℹ️ INFO:   Peak Price: 1.02829
03/02/2025 18:15:01.303 | Info | [18:15:01] ℹ️ INFO:   Start Price: 1.03174
03/02/2025 18:15:01.303 | Info | [18:15:01] ℹ️ INFO:   Price Delta: -0.00345
03/02/2025 18:15:01.303 | Info | [18:15:01] ℹ️ INFO:   Peak FD: 1.692
03/02/2025 18:15:01.303 | Info | [18:15:01] ℹ️ INFO: ════════════════════════════════════════
03/02/2025 18:15:01.303 | Info | [18:15:01] ℹ️ INFO: ⏳ Waiting for TIP confirmation (Threshold: 1.1)...
03/02/2025 18:30:00.301 | Info | [18:30:00] ℹ️ INFO: ════════════════════════════════════════
03/02/2025 18:30:00.301 | Info | [18:30:00] ℹ️ INFO: 🎯 SIGNAL DETECTED: REVERSAL (Price dropped against trend)
03/02/2025 18:30:00.301 | Info | [18:30:00] ℹ️ INFO:   Direction: Buy
03/02/2025 18:30:00.301 | Info | [18:30:00] ℹ️ INFO:   Trend: DOWN
03/02/2025 18:30:00.301 | Info | [18:30:00] ℹ️ INFO:   Peak Price: 1.02829
03/02/2025 18:30:00.301 | Info | [18:30:00] ℹ️ INFO:   Start Price: 1.03174
03/02/2025 18:30:00.301 | Info | [18:30:00] ℹ️ INFO:   Price Delta: -0.00345
03/02/2025 18:30:00.301 | Info | [18:30:00] ℹ️ INFO:   Peak FD: 1.692
03/02/2025 18:30:00.301 | Info | [18:30:00] ℹ️ INFO: ════════════════════════════════════════
03/02/2025 18:30:00.301 | Info | [18:30:00] ℹ️ INFO: ⏳ Waiting for TIP confirmation (Threshold: 1.1)...
03/02/2025 18:45:00.101 | Info | [18:45:00] ℹ️ INFO: ════════════════════════════════════════
03/02/2025 18:45:00.101 | Info | [18:45:00] ℹ️ INFO: 🎯 SIGNAL DETECTED: REVERSAL (Price dropped against trend)
03/02/2025 18:45:00.101 | Info | [18:45:00] ℹ️ INFO:   Direction: Buy
03/02/2025 18:45:00.101 | Info | [18:45:00] ℹ️ INFO:   Trend: DOWN
03/02/2025 18:45:00.101 | Info | [18:45:00] ℹ️ INFO:   Peak Price: 1.02829
03/02/2025 18:45:00.101 | Info | [18:45:00] ℹ️ INFO:   Start Price: 1.03174
03/02/2025 18:45:00.101 | Info | [18:45:00] ℹ️ INFO:   Price Delta: -0.00345
03/02/2025 18:45:00.101 | Info | [18:45:00] ℹ️ INFO:   Peak FD: 1.692
03/02/2025 18:45:00.101 | Info | [18:45:00] ℹ️ INFO: ════════════════════════════════════════
03/02/2025 18:45:00.101 | Info | [18:45:00] ℹ️ INFO: ⏳ Waiting for TIP confirmation (Threshold: 1.1)...
03/02/2025 19:00:00.206 | Info | [19:00:00] ℹ️ INFO: ════════════════════════════════════════
03/02/2025 19:00:00.206 | Info | [19:00:00] ℹ️ INFO: 🎯 SIGNAL DETECTED: REVERSAL (Price dropped against trend)
03/02/2025 19:00:00.206 | Info | [19:00:00] ℹ️ INFO:   Direction: Buy
03/02/2025 19:00:00.206 | Info | [19:00:00] ℹ️ INFO:   Trend: DOWN
03/02/2025 19:00:00.206 | Info | [19:00:00] ℹ️ INFO:   Peak Price: 1.02829
03/02/2025 19:00:00.206 | Info | [19:00:00] ℹ️ INFO:   Start Price: 1.03174
03/02/2025 19:00:00.206 | Info | [19:00:00] ℹ️ INFO:   Price Delta: -0.00345
03/02/2025 19:00:00.206 | Info | [19:00:00] ℹ️ INFO:   Peak FD: 1.692
03/02/2025 19:00:00.206 | Info | [19:00:00] ℹ️ INFO: ════════════════════════════════════════
03/02/2025 19:00:00.206 | Info | [19:00:00] ℹ️ INFO: ⏳ Waiting for TIP confirmation (Threshold: 1.1)...
03/02/2025 19:15:00.005 | Info | [19:15:00] ℹ️ INFO: ════════════════════════════════════════
03/02/2025 19:15:00.005 | Info | [19:15:00] ℹ️ INFO: 🎯 SIGNAL DETECTED: REVERSAL (Price dropped against trend)
03/02/2025 19:15:00.005 | Info | [19:15:00] ℹ️ INFO:   Direction: Buy
03/02/2025 19:15:00.005 | Info | [19:15:00] ℹ️ INFO:   Trend: DOWN
03/02/2025 19:15:00.005 | Info | [19:15:00] ℹ️ INFO:   Peak Price: 1.02829
03/02/2025 19:15:00.005 | Info | [19:15:00] ℹ️ INFO:   Start Price: 1.03174
03/02/2025 19:15:00.005 | Info | [19:15:00] ℹ️ INFO:   Price Delta: -0.00345
03/02/2025 19:15:00.005 | Info | [19:15:00] ℹ️ INFO:   Peak FD: 1.692
03/02/2025 19:15:00.005 | Info | [19:15:00] ℹ️ INFO: ════════════════════════════════════════
03/02/2025 19:15:00.005 | Info | [19:15:00] ℹ️ INFO: ⏳ Waiting for TIP confirmation (Threshold: 1.1)...
03/02/2025 19:15:01.302 | Info | [19:15:01] ℹ️ INFO: 🔥 TIP CONFIRMED - Z-Score: 1.68
03/02/2025 19:15:01.302 | Trade | Executing Market Order to Buy 106000 EURUSD (SL: 45.5)
03/02/2025 19:15:01.302 | Trade | → Executing Market Order to Buy 106000 EURUSD (SL: 45.5) SUCCEEDED, Position PID16
03/02/2025 19:15:01.302 | Info | [19:15:01] ℹ️ INFO: ════════════════════════════════════════
03/02/2025 19:15:01.302 | Info | [19:15:01] ℹ️ INFO: 🚀 TRADE EXECUTED - TIP Triggered
03/02/2025 19:15:01.302 | Info | [19:15:01] ℹ️ INFO: Position: 16
03/02/2025 19:15:01.302 | Info | [19:15:01] ℹ️ INFO: Direction: Buy
03/02/2025 19:15:01.302 | Info | [19:15:01] ℹ️ INFO: Entry: 1.02909
03/02/2025 19:15:01.302 | Info | [19:15:01] ℹ️ INFO: Volume: 106.00 lots
03/02/2025 19:15:01.302 | Info | [19:15:01] ℹ️ INFO: Stop: 45.5 pips (Min: 15)
03/02/2025 19:15:01.302 | Info | [19:15:01] ℹ️ INFO: Risk: $415.34
03/02/2025 19:15:01.302 | Info | [19:15:01] ℹ️ INFO: TP1: 1.03359
03/02/2025 19:15:01.302 | Info | [19:15:01] ℹ️ INFO: TP2: 1.04574
03/02/2025 19:15:01.302 | Info | [19:15:01] ℹ️ INFO: P-Zero: 1.03359
03/02/2025 19:15:01.302 | Info | [19:15:01] ℹ️ INFO: Stretch: 45.0 pips
03/02/2025 19:15:01.302 | Info | [19:15:01] ℹ️ INFO: ════════════════════════════════════════
03/02/2025 19:30:01.902 | Info | [19:30:01] ℹ️ INFO: 🔄 TREND REVERSAL - Pos 16
03/02/2025 19:30:01.902 | Trade | Closing position PID16 (Volume: 106000)
03/02/2025 19:30:01.902 | Trade | → Closing position PID16 (Volume: 106000) SUCCEEDED
03/02/2025 19:30:01.902 | Info | [19:30:01] ℹ️ INFO: ✅ Closed 16
03/02/2025 19:30:01.902 | Info | [19:30:01] ℹ️ INFO: ════════════════════════════════════════
03/02/2025 19:30:01.902 | Info | [19:30:01] ℹ️ INFO: 📊 POSITION CLOSED
03/02/2025 19:30:01.902 | Info | [19:30:01] ℹ️ INFO: ID: 16
03/02/2025 19:30:01.902 | Info | [19:30:01] ℹ️ INFO: Direction: Buy
03/02/2025 19:30:01.902 | Info | [19:30:01] ℹ️ INFO: Entry: 1.02909
03/02/2025 19:30:01.902 | Info | [19:30:01] ℹ️ INFO: P&L: $3.65
03/02/2025 19:30:01.902 | Info | [19:30:01] ℹ️ INFO: Pips: 1.3
03/02/2025 19:30:01.902 | Info | [19:30:01] ℹ️ INFO: Reason: Closed
03/02/2025 19:30:01.902 | Info | [19:30:01] ℹ️ INFO: ════════════════════════════════════════
