21/01/2025 00:00:00.000 | Info | CBot instance [HydrodynamicBot, EURUSD, Ra10] started.
21/01/2025 00:00:00.102 | Info | [00:00:00] ℹ️ INFO: ════════════════════════════════════════
21/01/2025 00:00:00.102 | Info | [00:00:00] ℹ️ INFO:  HydroDynamic Bot v8.2 - FINAL
21/01/2025 00:00:00.102 | Info | [00:00:00] ℹ️ INFO: ════════════════════════════════════════
21/01/2025 00:00:00.102 | Info | [00:00:00] ℹ️ INFO:  Symbol: EURUSD
21/01/2025 00:00:00.102 | Info | [00:00:00] ℹ️ INFO:  Timeframe: Range10
21/01/2025 00:00:00.102 | Info | [00:00:00] ℹ️ INFO:  Trading: ON ✅
21/01/2025 00:00:00.102 | Info | [00:00:00] ℹ️ INFO: ════════════════════════════════════════
21/01/2025 00:00:00.102 | Info | [00:00:00] ℹ️ INFO: ⏳ Calculating 200 bars...
21/01/2025 00:00:00.102 | Info | [00:00:00] ℹ️ INFO: ⏳ Warming up indicators (Last 500 bars)...
21/01/2025 00:00:00.102 | Info | [00:00:00] ℹ️ INFO: 🌀 CORRECTION STARTED - FD: 1.75, P_zero: 1.02865
21/01/2025 00:00:00.102 | Info | [00:00:00] ℹ️ INFO: ✅ CORRECTION ENDED - FD: 1.43, P_zero: 1.02865, READY
21/01/2025 00:00:00.102 | Info | [00:00:00] ℹ️ INFO: 🌀 CORRECTION STARTED - FD: 1.65, P_zero: 1.04302
21/01/2025 00:00:00.102 | Info | [00:00:00] ℹ️ INFO: ✅ CORRECTION ENDED - FD: 1.44, P_zero: 1.04302, READY
21/01/2025 00:00:00.102 | Info | [00:00:00] ℹ️ INFO: ✅ Ready - 200 bars processed
21/01/2025 00:00:00.102 | Info | [00:00:00] ℹ️ INFO: 🚀 Bot started successfully!
21/01/2025 02:15:44.203 | Info | [02:15:44] ℹ️ INFO: 🔥 TIP SIGNAL - Raw: 10649.50, Z-Score: 2.86
21/01/2025 03:01:00.502 | Info | [03:01:00] ℹ️ INFO: ════════════════════════════════════════
21/01/2025 03:01:00.502 | Info | [03:01:00] ℹ️ INFO: ✅ SYSTEM READY (Warm-up Complete)
21/01/2025 03:01:00.502 | Info | [03:01:00] ℹ️ INFO: 📊 Baseline Spread established: 0.1 pips
21/01/2025 03:01:00.502 | Info | [03:01:00] ℹ️ INFO: ════════════════════════════════════════
21/01/2025 05:10:53.301 | Info | [05:10:53] ℹ️ INFO: 🔥 TIP SIGNAL - Raw: 11176.71, Z-Score: 2.82
21/01/2025 07:56:17.504 | Info | [07:56:17] ℹ️ INFO: 🔥 TIP SIGNAL - Raw: 14065.74, Z-Score: 3.14
21/01/2025 09:32:33.509 | Info | [09:32:33] ℹ️ INFO: 🔥 TIP SIGNAL - Raw: 16345.36, Z-Score: 3.36
21/01/2025 11:01:51.202 | Info | [11:01:51] ℹ️ INFO: 🔥 TIP SIGNAL - Raw: 19073.27, Z-Score: 3.59
21/01/2025 12:49:56.001 | Info | [12:49:56] ℹ️ INFO: 🔥 TIP SIGNAL - Raw: 25783.70, Z-Score: 4.10
21/01/2025 13:01:47.301 | Info | [13:01:47] ℹ️ INFO: 🔥 TIP SIGNAL - Raw: 21996.46, Z-Score: 3.07
22/01/2025 02:54:25.402 | Info | [02:54:25] ℹ️ INFO: 🔥 TIP SIGNAL - Raw: 17591.07, Z-Score: 2.61
22/01/2025 02:54:25.402 | Info | [02:54:25] ℹ️ INFO: ════════════════════════════════════════
22/01/2025 02:54:25.402 | Info | [02:54:25] ℹ️ INFO: 🎯 ALL CONDITIONS MET
22/01/2025 02:54:25.402 | Info | [02:54:25] ℹ️ INFO:   Trend: 1, Hurst: 0.739
22/01/2025 02:54:25.402 | Info | [02:54:25] ℹ️ INFO:   P_zero: 1.04302
22/01/2025 02:54:25.402 | Info | [02:54:25] ℹ️ INFO:   FD: 1.468
22/01/2025 02:54:25.402 | Info | [02:54:25] ℹ️ INFO:   TIP Z-Score: 2.61
22/01/2025 02:54:25.402 | Info | [02:54:25] ℹ️ INFO:   Toxicity: 0.00 ✅
22/01/2025 02:54:25.402 | Info | [02:54:25] ℹ️ INFO: ════════════════════════════════════════
22/01/2025 02:54:25.402 | Trade | Executing Market Order to Buy 61000 EURUSD (SL: 19.1)
22/01/2025 02:54:25.402 | Trade | → Executing Market Order to Buy 61000 EURUSD (SL: 19.1) SUCCEEDED, Position PID1
22/01/2025 02:54:25.402 | Info | [02:54:25] ℹ️ INFO: ════════════════════════════════════════
22/01/2025 02:54:25.402 | Info | [02:54:25] ℹ️ INFO: 🚀 TRADE EXECUTED
22/01/2025 02:54:25.402 | Info | [02:54:25] ℹ️ INFO: Position: 1
22/01/2025 02:54:25.402 | Info | [02:54:25] ℹ️ INFO: Direction: Buy
22/01/2025 02:54:25.402 | Info | [02:54:25] ℹ️ INFO: Entry: 1.04161
22/01/2025 02:54:25.402 | Info | [02:54:25] ℹ️ INFO: Volume: 61.00 lots
22/01/2025 02:54:25.402 | Info | [02:54:25] ℹ️ INFO: Stop: 19.1 pips
22/01/2025 02:54:25.402 | Info | [02:54:25] ℹ️ INFO: Risk: $100.00
22/01/2025 02:54:25.402 | Info | [02:54:25] ℹ️ INFO: TP1: 1.04302
22/01/2025 02:54:25.402 | Info | [02:54:25] ℹ️ INFO: TP2: 1.04530
22/01/2025 02:54:25.402 | Info | [02:54:25] ℹ️ INFO: ════════════════════════════════════════
22/01/2025 06:05:45.901 | Info | [06:05:45] ℹ️ INFO: 🔥 TIP SIGNAL - Raw: 19298.25, Z-Score: 2.75
22/01/2025 07:57:41.305 | Info | [07:57:41] ℹ️ INFO: 🔥 TIP SIGNAL - Raw: 16302.17, Z-Score: 2.06
22/01/2025 09:18:19.803 | Trade | Closing position PID1 (Volume: 31000)
22/01/2025 09:18:19.803 | Trade | → Closing position PID1 (Volume: 31000) SUCCEEDED, Position PID1
22/01/2025 09:18:19.803 | Info | [09:18:19] ℹ️ INFO: ✅ Closed 1
22/01/2025 09:18:19.803 | Trade | Modifying position PID1 (SL: 1.04161, TP: null)
22/01/2025 09:18:19.803 | Trade | → Modifying position PID1 (SL: 1.04161, TP: null) SUCCEEDED, Position PID1
22/01/2025 09:18:19.803 | Info | [09:18:19] ℹ️ INFO: ✅ TP1 HIT - Pos 1
22/01/2025 09:22:02.000 | Trade | Modifying position PID1 (SL: 1.04161, TP: null)
22/01/2025 09:22:02.000 | Trade | → Modifying position PID1 (SL: 1.04161, TP: null) SUCCEEDED, Position PID1
22/01/2025 09:22:02.901 | Trade | Modifying position PID1 (SL: 1.04162, TP: null)
22/01/2025 09:22:02.901 | Trade | → Modifying position PID1 (SL: 1.04162, TP: null) SUCCEEDED, Position PID1
22/01/2025 09:22:04.607 | Trade | Modifying position PID1 (SL: 1.04164, TP: null)
22/01/2025 09:22:04.607 | Trade | → Modifying position PID1 (SL: 1.04164, TP: null) SUCCEEDED, Position PID1
22/01/2025 09:25:45.505 | Trade | Modifying position PID1 (SL: 1.04164, TP: null)
22/01/2025 09:25:45.505 | Trade | → Modifying position PID1 (SL: 1.04164, TP: null) SUCCEEDED, Position PID1
22/01/2025 09:25:48.202 | Trade | Modifying position PID1 (SL: 1.04164, TP: null)
22/01/2025 09:25:48.202 | Trade | → Modifying position PID1 (SL: 1.04164, TP: null) SUCCEEDED, Position PID1
22/01/2025 09:25:48.506 | Trade | Modifying position PID1 (SL: 1.04165, TP: null)
22/01/2025 09:25:48.506 | Trade | → Modifying position PID1 (SL: 1.04165, TP: null) SUCCEEDED, Position PID1
22/01/2025 09:25:56.803 | Trade | Modifying position PID1 (SL: 1.04165, TP: null)
22/01/2025 09:25:56.803 | Trade | → Modifying position PID1 (SL: 1.04165, TP: null) SUCCEEDED, Position PID1
22/01/2025 09:25:57.106 | Trade | Modifying position PID1 (SL: 1.04167, TP: null)
22/01/2025 09:25:57.106 | Trade | → Modifying position PID1 (SL: 1.04167, TP: null) SUCCEEDED, Position PID1
22/01/2025 09:25:59.401 | Trade | Modifying position PID1 (SL: 1.04168, TP: null)
22/01/2025 09:25:59.401 | Trade | → Modifying position PID1 (SL: 1.04168, TP: null) SUCCEEDED, Position PID1
22/01/2025 09:26:00.402 | Trade | Modifying position PID1 (SL: 1.04169, TP: null)
22/01/2025 09:26:00.402 | Trade | → Modifying position PID1 (SL: 1.04169, TP: null) SUCCEEDED, Position PID1
22/01/2025 09:26:01.402 | Trade | Modifying position PID1 (SL: 1.04173, TP: null)
22/01/2025 09:26:01.402 | Trade | → Modifying position PID1 (SL: 1.04173, TP: null) SUCCEEDED, Position PID1
22/01/2025 09:26:02.501 | Trade | Modifying position PID1 (SL: 1.04173, TP: null)
22/01/2025 09:26:02.501 | Trade | → Modifying position PID1 (SL: 1.04173, TP: null) SUCCEEDED, Position PID1
22/01/2025 09:26:06.602 | Trade | Modifying position PID1 (SL: 1.04173, TP: null)
22/01/2025 09:26:06.602 | Trade | → Modifying position PID1 (SL: 1.04173, TP: null) SUCCEEDED, Position PID1
22/01/2025 09:26:08.410 | Trade | Modifying position PID1 (SL: 1.04173, TP: null)
22/01/2025 09:26:08.410 | Trade | → Modifying position PID1 (SL: 1.04173, TP: null) SUCCEEDED, Position PID1
22/01/2025 09:26:09.103 | Trade | Modifying position PID1 (SL: 1.04173, TP: null)
22/01/2025 09:26:09.103 | Trade | → Modifying position PID1 (SL: 1.04173, TP: null) SUCCEEDED, Position PID1
22/01/2025 09:26:10.405 | Trade | Modifying position PID1 (SL: 1.04174, TP: null)
22/01/2025 09:26:10.405 | Trade | → Modifying position PID1 (SL: 1.04174, TP: null) SUCCEEDED, Position PID1
22/01/2025 09:26:11.703 | Trade | Modifying position PID1 (SL: 1.04176, TP: null)
22/01/2025 09:26:11.703 | Trade | → Modifying position PID1 (SL: 1.04176, TP: null) SUCCEEDED, Position PID1
22/01/2025 09:26:12.305 | Trade | Modifying position PID1 (SL: 1.04176, TP: null)
22/01/2025 09:26:12.305 | Trade | → Modifying position PID1 (SL: 1.04176, TP: null) SUCCEEDED, Position PID1
22/01/2025 09:26:13.304 | Trade | Modifying position PID1 (SL: 1.04176, TP: null)
22/01/2025 09:26:13.304 | Trade | → Modifying position PID1 (SL: 1.04176, TP: null) SUCCEEDED, Position PID1
22/01/2025 09:26:14.002 | Trade | Modifying position PID1 (SL: 1.04176, TP: null)
22/01/2025 09:26:14.002 | Trade | → Modifying position PID1 (SL: 1.04176, TP: null) SUCCEEDED, Position PID1
22/01/2025 09:26:14.302 | Trade | Modifying position PID1 (SL: 1.04177, TP: null)
22/01/2025 09:26:14.302 | Trade | → Modifying position PID1 (SL: 1.04177, TP: null) SUCCEEDED, Position PID1
22/01/2025 09:26:15.603 | Trade | Modifying position PID1 (SL: 1.04178, TP: null)
22/01/2025 09:26:15.603 | Trade | → Modifying position PID1 (SL: 1.04178, TP: null) SUCCEEDED, Position PID1
22/01/2025 09:26:15.904 | Trade | Modifying position PID1 (SL: 1.04179, TP: null)
22/01/2025 09:26:15.904 | Trade | → Modifying position PID1 (SL: 1.04179, TP: null) SUCCEEDED, Position PID1
22/01/2025 09:26:25.902 | Trade | Modifying position PID1 (SL: 1.0418, TP: null)
22/01/2025 09:26:25.902 | Trade | → Modifying position PID1 (SL: 1.0418, TP: null) SUCCEEDED, Position PID1
22/01/2025 09:26:27.204 | Trade | Modifying position PID1 (SL: 1.04181, TP: null)
22/01/2025 09:26:27.204 | Trade | → Modifying position PID1 (SL: 1.04181, TP: null) SUCCEEDED, Position PID1
22/01/2025 09:26:27.902 | Trade | Modifying position PID1 (SL: 1.04182, TP: null)
22/01/2025 09:26:27.902 | Trade | → Modifying position PID1 (SL: 1.04182, TP: null) SUCCEEDED, Position PID1
22/01/2025 09:27:33.802 | Trade | Modifying position PID1 (SL: 1.04183, TP: null)
22/01/2025 09:27:33.802 | Trade | → Modifying position PID1 (SL: 1.04183, TP: null) SUCCEEDED, Position PID1
22/01/2025 09:27:34.706 | Trade | Modifying position PID1 (SL: 1.04183, TP: null)
22/01/2025 09:27:34.706 | Trade | → Modifying position PID1 (SL: 1.04183, TP: null) SUCCEEDED, Position PID1
22/01/2025 09:27:35.401 | Trade | Modifying position PID1 (SL: 1.04184, TP: null)
22/01/2025 09:27:35.401 | Trade | → Modifying position PID1 (SL: 1.04184, TP: null) SUCCEEDED, Position PID1
22/01/2025 09:27:35.702 | Trade | Modifying position PID1 (SL: 1.04185, TP: null)
22/01/2025 09:27:35.702 | Trade | → Modifying position PID1 (SL: 1.04185, TP: null) SUCCEEDED, Position PID1
22/01/2025 09:27:36.402 | Trade | Modifying position PID1 (SL: 1.04186, TP: null)
22/01/2025 09:27:36.402 | Trade | → Modifying position PID1 (SL: 1.04186, TP: null) SUCCEEDED, Position PID1
22/01/2025 09:27:48.804 | Trade | Modifying position PID1 (SL: 1.04188, TP: null)
22/01/2025 09:27:48.804 | Trade | → Modifying position PID1 (SL: 1.04188, TP: null) SUCCEEDED, Position PID1
22/01/2025 09:27:49.506 | Trade | Modifying position PID1 (SL: 1.04188, TP: null)
22/01/2025 09:27:49.506 | Trade | → Modifying position PID1 (SL: 1.04188, TP: null) SUCCEEDED, Position PID1
22/01/2025 09:27:53.101 | Trade | Modifying position PID1 (SL: 1.04188, TP: null)
22/01/2025 09:27:53.101 | Trade | → Modifying position PID1 (SL: 1.04188, TP: null) SUCCEEDED, Position PID1
22/01/2025 09:27:53.801 | Trade | Modifying position PID1 (SL: 1.04189, TP: null)
22/01/2025 09:27:53.801 | Trade | → Modifying position PID1 (SL: 1.04189, TP: null) SUCCEEDED, Position PID1
22/01/2025 09:27:54.802 | Trade | Modifying position PID1 (SL: 1.04207, TP: null)
22/01/2025 09:27:54.802 | Trade | → Modifying position PID1 (SL: 1.04207, TP: null) SUCCEEDED, Position PID1
22/01/2025 09:28:02.505 | Trade | Modifying position PID1 (SL: 1.04207, TP: null)
22/01/2025 09:28:02.505 | Trade | → Modifying position PID1 (SL: 1.04207, TP: null) SUCCEEDED, Position PID1
22/01/2025 09:44:43.603 | Trade | Modifying position PID1 (SL: 1.04219, TP: null)
22/01/2025 09:44:43.603 | Trade | → Modifying position PID1 (SL: 1.04219, TP: null) SUCCEEDED, Position PID1
22/01/2025 09:44:43.906 | Trade | Modifying position PID1 (SL: 1.04223, TP: null)
22/01/2025 09:44:43.906 | Trade | → Modifying position PID1 (SL: 1.04223, TP: null) SUCCEEDED, Position PID1
22/01/2025 09:45:19.901 | Trade | Modifying position PID1 (SL: 1.04226, TP: null)
22/01/2025 09:45:19.901 | Trade | → Modifying position PID1 (SL: 1.04226, TP: null) SUCCEEDED, Position PID1
22/01/2025 09:45:34.902 | Trade | Modifying position PID1 (SL: 1.04227, TP: null)
22/01/2025 09:45:34.902 | Trade | → Modifying position PID1 (SL: 1.04227, TP: null) SUCCEEDED, Position PID1
22/01/2025 09:45:37.202 | Trade | Modifying position PID1 (SL: 1.04227, TP: null)
22/01/2025 09:45:37.202 | Trade | → Modifying position PID1 (SL: 1.04227, TP: null) SUCCEEDED, Position PID1
22/01/2025 09:45:37.905 | Trade | Modifying position PID1 (SL: 1.04229, TP: null)
22/01/2025 09:45:37.905 | Trade | → Modifying position PID1 (SL: 1.04229, TP: null) SUCCEEDED, Position PID1
22/01/2025 09:53:49.004 | Trade | Modifying position PID1 (SL: 1.0423, TP: null)
22/01/2025 09:53:49.004 | Trade | → Modifying position PID1 (SL: 1.0423, TP: null) SUCCEEDED, Position PID1
22/01/2025 09:53:52.109 | Trade | Modifying position PID1 (SL: 1.04242, TP: null)
22/01/2025 09:53:52.109 | Trade | → Modifying position PID1 (SL: 1.04242, TP: null) SUCCEEDED, Position PID1
22/01/2025 09:53:52.503 | Trade | Modifying position PID1 (SL: 1.04245, TP: null)
22/01/2025 09:53:52.503 | Trade | → Modifying position PID1 (SL: 1.04245, TP: null) SUCCEEDED, Position PID1
22/01/2025 09:53:52.803 | Trade | Modifying position PID1 (SL: 1.04246, TP: null)
22/01/2025 09:53:52.803 | Trade | → Modifying position PID1 (SL: 1.04246, TP: null) SUCCEEDED, Position PID1
22/01/2025 09:53:53.119 | Trade | Modifying position PID1 (SL: 1.0425, TP: null)
22/01/2025 09:53:53.119 | Trade | → Modifying position PID1 (SL: 1.0425, TP: null) SUCCEEDED, Position PID1
22/01/2025 09:53:53.509 | Trade | Modifying position PID1 (SL: 1.04251, TP: null)
22/01/2025 09:53:53.509 | Trade | → Modifying position PID1 (SL: 1.04251, TP: null) SUCCEEDED, Position PID1
22/01/2025 09:53:57.702 | Trade | Modifying position PID1 (SL: 1.04255, TP: null)
22/01/2025 09:53:57.702 | Trade | → Modifying position PID1 (SL: 1.04255, TP: null) SUCCEEDED, Position PID1
22/01/2025 09:53:59.001 | Trade | Modifying position PID1 (SL: 1.04257, TP: null)
22/01/2025 09:53:59.001 | Trade | → Modifying position PID1 (SL: 1.04257, TP: null) SUCCEEDED, Position PID1
22/01/2025 09:57:15.104 | Trade | Modifying position PID1 (SL: 1.04257, TP: null)
22/01/2025 09:57:15.104 | Trade | → Modifying position PID1 (SL: 1.04257, TP: null) SUCCEEDED, Position PID1
22/01/2025 09:57:17.302 | Trade | Modifying position PID1 (SL: 1.04257, TP: null)
22/01/2025 09:57:17.302 | Trade | → Modifying position PID1 (SL: 1.04257, TP: null) SUCCEEDED, Position PID1
22/01/2025 09:57:57.701 | Trade | Modifying position PID1 (SL: 1.0427, TP: null)
22/01/2025 09:57:57.701 | Trade | → Modifying position PID1 (SL: 1.0427, TP: null) SUCCEEDED, Position PID1
22/01/2025 09:57:58.001 | Trade | Modifying position PID1 (SL: 1.04279, TP: null)
22/01/2025 09:57:58.001 | Trade | → Modifying position PID1 (SL: 1.04279, TP: null) SUCCEEDED, Position PID1
22/01/2025 09:57:58.301 | Trade | Modifying position PID1 (SL: 1.04291, TP: null)
22/01/2025 09:57:58.301 | Trade | → Modifying position PID1 (SL: 1.04291, TP: null) SUCCEEDED, Position PID1
22/01/2025 09:57:58.700 | Trade | Modifying position PID1 (SL: 1.04294, TP: null)
22/01/2025 09:57:58.700 | Trade | → Modifying position PID1 (SL: 1.04294, TP: null) SUCCEEDED, Position PID1
22/01/2025 09:57:59.000 | Trade | Modifying position PID1 (SL: 1.04296, TP: null)
22/01/2025 09:57:59.000 | Trade | → Modifying position PID1 (SL: 1.04296, TP: null) SUCCEEDED, Position PID1
22/01/2025 09:57:59.903 | Trade | Modifying position PID1 (SL: 1.04297, TP: null)
22/01/2025 09:57:59.903 | Trade | → Modifying position PID1 (SL: 1.04297, TP: null) SUCCEEDED, Position PID1
22/01/2025 09:58:00.204 | Trade | Modifying position PID1 (SL: 1.043, TP: null)
22/01/2025 09:58:00.204 | Trade | → Modifying position PID1 (SL: 1.043, TP: null) SUCCEEDED, Position PID1
22/01/2025 09:58:51.007 | Trade | Modifying position PID1 (SL: 1.043, TP: null)
22/01/2025 09:58:51.007 | Trade | → Modifying position PID1 (SL: 1.043, TP: null) SUCCEEDED, Position PID1
22/01/2025 09:58:53.405 | Trade | Modifying position PID1 (SL: 1.043, TP: null)
22/01/2025 09:58:53.405 | Trade | → Modifying position PID1 (SL: 1.043, TP: null) SUCCEEDED, Position PID1
22/01/2025 09:58:53.802 | Trade | Modifying position PID1 (SL: 1.04301, TP: null)
22/01/2025 09:58:53.802 | Trade | → Modifying position PID1 (SL: 1.04301, TP: null) SUCCEEDED, Position PID1
22/01/2025 09:59:08.202 | Trade | Modifying position PID1 (SL: 1.04303, TP: null)
22/01/2025 09:59:08.202 | Trade | → Modifying position PID1 (SL: 1.04303, TP: null) SUCCEEDED, Position PID1
22/01/2025 09:59:11.506 | Trade | Modifying position PID1 (SL: 1.0431, TP: null)
22/01/2025 09:59:11.506 | Trade | → Modifying position PID1 (SL: 1.0431, TP: null) SUCCEEDED, Position PID1
22/01/2025 09:59:13.120 | Trade | Modifying position PID1 (SL: 1.0431, TP: null)
22/01/2025 09:59:13.120 | Trade | → Modifying position PID1 (SL: 1.0431, TP: null) SUCCEEDED, Position PID1
22/01/2025 09:59:13.501 | Trade | Modifying position PID1 (SL: 1.04311, TP: null)
22/01/2025 09:59:13.501 | Trade | → Modifying position PID1 (SL: 1.04311, TP: null) SUCCEEDED, Position PID1
22/01/2025 09:59:18.302 | Trade | Modifying position PID1 (SL: 1.04312, TP: null)
22/01/2025 09:59:18.302 | Trade | → Modifying position PID1 (SL: 1.04312, TP: null) SUCCEEDED, Position PID1
22/01/2025 09:59:20.701 | Trade | Modifying position PID1 (SL: 1.04313, TP: null)
22/01/2025 09:59:20.701 | Trade | → Modifying position PID1 (SL: 1.04313, TP: null) SUCCEEDED, Position PID1
22/01/2025 09:59:21.302 | Trade | Modifying position PID1 (SL: 1.04313, TP: null)
22/01/2025 09:59:21.302 | Trade | → Modifying position PID1 (SL: 1.04313, TP: null) SUCCEEDED, Position PID1
22/01/2025 09:59:22.301 | Trade | Modifying position PID1 (SL: 1.04312, TP: null)
22/01/2025 09:59:22.301 | Trade | → Modifying position PID1 (SL: 1.04312, TP: null) SUCCEEDED, Position PID1
22/01/2025 09:59:23.301 | Trade | Modifying position PID1 (SL: 1.04313, TP: null)
22/01/2025 09:59:23.301 | Trade | → Modifying position PID1 (SL: 1.04313, TP: null) SUCCEEDED, Position PID1
22/01/2025 09:59:27.000 | Trade | Modifying position PID1 (SL: 1.04313, TP: null)
22/01/2025 09:59:27.000 | Trade | → Modifying position PID1 (SL: 1.04313, TP: null) SUCCEEDED, Position PID1
22/01/2025 09:59:27.303 | Trade | Modifying position PID1 (SL: 1.04312, TP: null)
22/01/2025 09:59:27.303 | Trade | → Modifying position PID1 (SL: 1.04312, TP: null) SUCCEEDED, Position PID1
22/01/2025 09:59:28.000 | Trade | Modifying position PID1 (SL: 1.04313, TP: null)
22/01/2025 09:59:28.000 | Trade | → Modifying position PID1 (SL: 1.04313, TP: null) SUCCEEDED, Position PID1
22/01/2025 09:59:28.302 | Trade | Modifying position PID1 (SL: 1.04329, TP: null)
22/01/2025 09:59:28.302 | Trade | → Modifying position PID1 (SL: 1.04329, TP: null) SUCCEEDED, Position PID1
22/01/2025 09:59:46.500 | Trade | Modifying position PID1 (SL: 1.04332, TP: null)
22/01/2025 09:59:46.500 | Trade | → Modifying position PID1 (SL: 1.04332, TP: null) SUCCEEDED, Position PID1
22/01/2025 09:59:49.201 | Trade | Modifying position PID1 (SL: 1.04333, TP: null)
22/01/2025 09:59:49.201 | Trade | → Modifying position PID1 (SL: 1.04333, TP: null) SUCCEEDED, Position PID1
22/01/2025 10:05:30.501 | Trade | Modifying position PID1 (SL: 1.04335, TP: null)
22/01/2025 10:05:30.501 | Trade | → Modifying position PID1 (SL: 1.04335, TP: null) SUCCEEDED, Position PID1
22/01/2025 10:05:34.102 | Trade | Modifying position PID1 (SL: 1.04338, TP: null)
22/01/2025 10:05:34.102 | Trade | → Modifying position PID1 (SL: 1.04338, TP: null) SUCCEEDED, Position PID1
22/01/2025 10:06:02.205 | Trade | Modifying position PID1 (SL: 1.04339, TP: null)
22/01/2025 10:06:02.205 | Trade | → Modifying position PID1 (SL: 1.04339, TP: null) SUCCEEDED, Position PID1
22/01/2025 10:06:07.506 | Trade | Modifying position PID1 (SL: 1.04346, TP: null)
22/01/2025 10:06:07.506 | Trade | → Modifying position PID1 (SL: 1.04346, TP: null) SUCCEEDED, Position PID1
22/01/2025 10:06:07.900 | Trade | Modifying position PID1 (SL: 1.04348, TP: null)
22/01/2025 10:06:07.900 | Trade | → Modifying position PID1 (SL: 1.04348, TP: null) SUCCEEDED, Position PID1
22/01/2025 10:06:08.203 | Trade | Modifying position PID1 (SL: 1.04351, TP: null)
22/01/2025 10:06:08.203 | Trade | → Modifying position PID1 (SL: 1.04351, TP: null) SUCCEEDED, Position PID1
22/01/2025 10:06:13.602 | Trade | Modifying position PID1 (SL: 1.04351, TP: null)
22/01/2025 10:06:13.602 | Trade | → Modifying position PID1 (SL: 1.04351, TP: null) SUCCEEDED, Position PID1
22/01/2025 10:06:14.205 | Trade | Modifying position PID1 (SL: 1.04351, TP: null)
22/01/2025 10:06:14.205 | Trade | → Modifying position PID1 (SL: 1.04351, TP: null) SUCCEEDED, Position PID1
22/01/2025 10:06:23.402 | Trade | Modifying position PID1 (SL: 1.04351, TP: null)
22/01/2025 10:06:23.402 | Trade | → Modifying position PID1 (SL: 1.04351, TP: null) SUCCEEDED, Position PID1
22/01/2025 10:06:24.304 | Trade | Modifying position PID1 (SL: 1.04362, TP: null)
22/01/2025 10:06:24.304 | Trade | → Modifying position PID1 (SL: 1.04362, TP: null) SUCCEEDED, Position PID1
22/01/2025 10:06:24.604 | Trade | Modifying position PID1 (SL: 1.04364, TP: null)
22/01/2025 10:06:24.604 | Trade | → Modifying position PID1 (SL: 1.04364, TP: null) SUCCEEDED, Position PID1
22/01/2025 10:08:00.503 | Trade | Modifying position PID1 (SL: 1.04364, TP: null)
22/01/2025 10:08:00.503 | Trade | → Modifying position PID1 (SL: 1.04364, TP: null) SUCCEEDED, Position PID1
22/01/2025 10:08:07.211 | Trade | Modifying position PID1 (SL: 1.04364, TP: null)
22/01/2025 10:08:07.211 | Trade | → Modifying position PID1 (SL: 1.04364, TP: null) SUCCEEDED, Position PID1
22/01/2025 10:08:09.203 | Trade | Modifying position PID1 (SL: 1.04376, TP: null)
22/01/2025 10:08:09.203 | Trade | → Modifying position PID1 (SL: 1.04376, TP: null) SUCCEEDED, Position PID1
22/01/2025 10:22:38.803 | Trade | Modifying position PID1 (SL: 1.04376, TP: null)
22/01/2025 10:22:38.803 | Trade | → Modifying position PID1 (SL: 1.04376, TP: null) SUCCEEDED, Position PID1
22/01/2025 10:23:13.704 | Trade | Modifying position PID1 (SL: 1.04377, TP: null)
22/01/2025 10:23:13.704 | Trade | → Modifying position PID1 (SL: 1.04377, TP: null) SUCCEEDED, Position PID1
22/01/2025 10:23:17.701 | Trade | Modifying position PID1 (SL: 1.04389, TP: null)
22/01/2025 10:23:17.701 | Trade | → Modifying position PID1 (SL: 1.04389, TP: null) SUCCEEDED, Position PID1
22/01/2025 10:23:24.601 | Trade | Modifying position PID1 (SL: 1.0439, TP: null)
22/01/2025 10:23:24.601 | Trade | → Modifying position PID1 (SL: 1.0439, TP: null) SUCCEEDED, Position PID1
22/01/2025 10:23:26.802 | Trade | Modifying position PID1 (SL: 1.0439, TP: null)
22/01/2025 10:23:26.802 | Trade | → Modifying position PID1 (SL: 1.0439, TP: null) SUCCEEDED, Position PID1
22/01/2025 10:23:29.303 | Info | [10:23:29] ℹ️ INFO: 🎯 TP2 HIT - Pos 1
22/01/2025 10:23:29.303 | Trade | Closing position PID1 (Volume: 30000)
22/01/2025 10:23:29.303 | Trade | → Closing position PID1 (Volume: 30000) SUCCEEDED
22/01/2025 10:23:29.303 | Info | [10:23:29] ℹ️ INFO: ✅ Closed 1
22/01/2025 10:23:29.303 | Info | [10:23:29] ℹ️ INFO: ════════════════════════════════════════
22/01/2025 10:23:29.303 | Info | [10:23:29] ℹ️ INFO: 📊 POSITION CLOSED
22/01/2025 10:23:29.303 | Info | [10:23:29] ℹ️ INFO: ID: 1
22/01/2025 10:23:29.303 | Info | [10:23:29] ℹ️ INFO: Direction: Buy
22/01/2025 10:23:29.303 | Info | [10:23:29] ℹ️ INFO: Entry: 1.04161
22/01/2025 10:23:29.303 | Info | [10:23:29] ℹ️ INFO: P&L: $93.15
22/01/2025 10:23:29.303 | Info | [10:23:29] ℹ️ INFO: Pips: 37.0
22/01/2025 10:23:29.303 | Info | [10:23:29] ℹ️ INFO: Reason: Closed
22/01/2025 10:23:29.303 | Info | [10:23:29] ℹ️ INFO: ════════════════════════════════════════
22/01/2025 14:46:44.000 | Info | [14:46:44] ℹ️ INFO: 🔥 TIP SIGNAL - Raw: 18210.53, Z-Score: 2.26
23/01/2025 08:35:18.200 | Info | [08:35:18] ℹ️ INFO: 🔥 TIP SIGNAL - Raw: 17773.99, Z-Score: 2.13
23/01/2025 13:13:49.601 | Info | [13:13:49] ℹ️ INFO: 🔥 TIP SIGNAL - Raw: 18474.63, Z-Score: 2.12
23/01/2025 16:13:54.701 | Info | [16:13:54] ℹ️ INFO: 🌀 CORRECTION STARTED - FD: 1.67, P_zero: 1.03720
24/01/2025 13:19:39.300 | Info | [13:19:39] ℹ️ INFO: ✅ CORRECTION ENDED - FD: 1.44, P_zero: 1.03720, READY
24/01/2025 17:49:36.603 | Info | [17:49:36] ℹ️ INFO: 🔥 TIP SIGNAL - Raw: 19555.43, Z-Score: 3.18
27/01/2025 07:57:18.397 | Info | [07:57:18] ℹ️ INFO: 🔥 TIP SIGNAL - Raw: 16576.15, Z-Score: 2.95
27/01/2025 07:57:18.397 | Info | [07:57:18] ℹ️ INFO: ════════════════════════════════════════
27/01/2025 07:57:18.397 | Info | [07:57:18] ℹ️ INFO: 🎯 ALL CONDITIONS MET
27/01/2025 07:57:18.397 | Info | [07:57:18] ℹ️ INFO:   Trend: -1, Hurst: 0.568
27/01/2025 07:57:18.397 | Info | [07:57:18] ℹ️ INFO:   P_zero: 1.03720
27/01/2025 07:57:18.397 | Info | [07:57:18] ℹ️ INFO:   FD: 1.355
27/01/2025 07:57:18.397 | Info | [07:57:18] ℹ️ INFO:   TIP Z-Score: 2.95
27/01/2025 07:57:18.397 | Info | [07:57:18] ℹ️ INFO:   Toxicity: 0.00 ✅
27/01/2025 07:57:18.397 | Info | [07:57:18] ℹ️ INFO: ════════════════════════════════════════
27/01/2025 07:57:18.397 | Trade | Executing Market Order to Sell 13000 EURUSD (SL: 94.2)
27/01/2025 07:57:18.397 | Trade | → Executing Market Order to Sell 13000 EURUSD (SL: 94.2) SUCCEEDED, Position PID2
27/01/2025 07:57:18.397 | Info | [07:57:18] ℹ️ INFO: ════════════════════════════════════════
27/01/2025 07:57:18.397 | Info | [07:57:18] ℹ️ INFO: 🚀 TRADE EXECUTED
27/01/2025 07:57:18.397 | Info | [07:57:18] ℹ️ INFO: Position: 2
27/01/2025 07:57:18.397 | Info | [07:57:18] ℹ️ INFO: Direction: Sell
27/01/2025 07:57:18.397 | Info | [07:57:18] ℹ️ INFO: Entry: 1.04612
27/01/2025 07:57:18.397 | Info | [07:57:18] ℹ️ INFO: Volume: 13.00 lots
27/01/2025 07:57:18.397 | Info | [07:57:18] ℹ️ INFO: Stop: 94.2 pips
27/01/2025 07:57:18.397 | Info | [07:57:18] ℹ️ INFO: Risk: $101.28
27/01/2025 07:57:18.397 | Info | [07:57:18] ℹ️ INFO: TP1: 1.03720
27/01/2025 07:57:18.397 | Info | [07:57:18] ℹ️ INFO: TP2: 1.02277
27/01/2025 07:57:18.397 | Info | [07:57:18] ℹ️ INFO: ════════════════════════════════════════
27/01/2025 11:13:45.204 | Info | [11:13:45] ℹ️ INFO: 🔄 TREND REVERSAL - Pos 2
27/01/2025 11:13:45.204 | Trade | Closing position PID2 (Volume: 13000)
27/01/2025 11:13:45.204 | Trade | → Closing position PID2 (Volume: 13000) SUCCEEDED
27/01/2025 11:13:45.204 | Info | [11:13:45] ℹ️ INFO: ✅ Closed 2
27/01/2025 11:13:45.204 | Info | [11:13:45] ℹ️ INFO: ════════════════════════════════════════
27/01/2025 11:13:45.204 | Info | [11:13:45] ℹ️ INFO: 📊 POSITION CLOSED
27/01/2025 11:13:45.204 | Info | [11:13:45] ℹ️ INFO: ID: 2
27/01/2025 11:13:45.204 | Info | [11:13:45] ℹ️ INFO: Direction: Sell
27/01/2025 11:13:45.204 | Info | [11:13:45] ℹ️ INFO: Entry: 1.04612
27/01/2025 11:13:45.204 | Info | [11:13:45] ℹ️ INFO: P&L: $-62.50
27/01/2025 11:13:45.204 | Info | [11:13:45] ℹ️ INFO: Pips: -55.0
27/01/2025 11:13:45.204 | Info | [11:13:45] ℹ️ INFO: Reason: Closed
27/01/2025 11:13:45.204 | Info | [11:13:45] ℹ️ INFO: ════════════════════════════════════════
27/01/2025 13:22:30.801 | Info | [13:22:30] ℹ️ INFO: 🔥 TIP SIGNAL - Raw: 15194.91, Z-Score: 2.54
27/01/2025 14:00:46.904 | Info | [14:00:46] ℹ️ INFO: 🔥 TIP SIGNAL - Raw: 13370.28, Z-Score: 2.02
27/01/2025 18:29:25.201 | Info | [18:29:25] ℹ️ INFO: 🔥 TIP SIGNAL - Raw: 19153.72, Z-Score: 3.07
28/01/2025 00:19:08.500 | Info | [00:19:08] ℹ️ INFO: 🔥 TIP SIGNAL - Raw: 21672.14, Z-Score: 3.63
28/01/2025 01:47:41.903 | Info | [01:47:41] ℹ️ INFO: 🔥 TIP SIGNAL - Raw: 17410.47, Z-Score: 2.58
28/01/2025 12:46:27.902 | Info | [12:46:27] ℹ️ INFO: 🔥 TIP SIGNAL - Raw: 16014.40, Z-Score: 2.08
28/01/2025 14:45:47.601 | Info | [14:45:47] ℹ️ INFO: 🌀 CORRECTION STARTED - FD: 1.68, P_zero: 1.04137
29/01/2025 07:09:34.709 | Info | [07:09:34] ℹ️ INFO: 🔥 TIP SIGNAL - Raw: 20613.38, Z-Score: 2.93
29/01/2025 16:35:55.393 | Info | [16:35:55] ℹ️ INFO: 🔥 TIP SIGNAL - Raw: 25385.41, Z-Score: 3.61
29/01/2025 19:32:32.702 | Info | [19:32:32] ℹ️ INFO: 🔥 TIP SIGNAL - Raw: 24157.68, Z-Score: 3.26
29/01/2025 19:59:20.402 | Info | [19:59:20] ℹ️ INFO: 🔥 TIP SIGNAL - Raw: 19966.12, Z-Score: 2.49
30/01/2025 10:50:43.502 | Info | [10:50:43] ℹ️ INFO: 🔥 TIP SIGNAL - Raw: 18329.80, Z-Score: 2.19
30/01/2025 14:46:17.301 | Info | [14:46:17] ℹ️ INFO: 🔥 TIP SIGNAL - Raw: 18235.18, Z-Score: 2.25
30/01/2025 20:30:18.301 | Info | [20:30:18] ℹ️ INFO: 🔥 TIP SIGNAL - Raw: 20376.78, Z-Score: 2.66
31/01/2025 16:49:32.204 | Info | [16:49:32] ℹ️ INFO: 🔥 TIP SIGNAL - Raw: 15310.96, Z-Score: 2.33
31/01/2025 18:35:42.502 | Info | [18:35:42] ℹ️ INFO: ✅ CORRECTION ENDED - FD: 1.44, P_zero: 1.04137, READY
31/01/2025 20:06:01.508 | Info | [20:06:01] ℹ️ INFO: 🔥 TIP SIGNAL - Raw: 19898.73, Z-Score: 3.27
03/02/2025 01:03:49.002 | Info | [01:03:49] ℹ️ INFO: 🔥 TIP SIGNAL - Raw: 14416.67, Z-Score: 2.73
03/02/2025 01:26:22.304 | Info | [01:26:22] ℹ️ INFO: 🌀 CORRECTION STARTED - FD: 1.70, P_zero: 1.02107
03/02/2025 09:03:43.403 | Info | [09:03:43] ℹ️ INFO: 🔥 TIP SIGNAL - Raw: 11035.91, Z-Score: 2.04
03/02/2025 09:23:08.802 | Info | [09:23:08] ℹ️ INFO: 🔥 TIP SIGNAL - Raw: 27709.80, Z-Score: 5.54
03/02/2025 11:29:52.502 | Info | [11:29:52] ℹ️ INFO: 🔥 TIP SIGNAL - Raw: 15513.68, Z-Score: 2.57
03/02/2025 13:04:18.725 | Info | [13:04:18] ℹ️ INFO: 🔥 TIP SIGNAL - Raw: 13422.35, Z-Score: 2.26
03/02/2025 19:35:35.300 | Info | [19:35:35] ℹ️ INFO: 🔥 TIP SIGNAL - Raw: 16584.40, Z-Score: 3.67
03/02/2025 20:13:26.300 | Info | [20:13:26] ℹ️ INFO: 🔥 TIP SIGNAL - Raw: 12366.38, Z-Score: 2.35
04/02/2025 00:08:33.701 | Info | [00:08:33] ℹ️ INFO: 🔥 TIP SIGNAL - Raw: 10723.72, Z-Score: 2.15
04/02/2025 03:41:17.704 | Info | [03:41:17] ℹ️ INFO: 🔥 TIP SIGNAL - Raw: 12816.27, Z-Score: 2.66
04/02/2025 05:06:10.503 | Info | [05:06:10] ℹ️ INFO: ✅ CORRECTION ENDED - FD: 1.45, P_zero: 1.02107, READY
04/02/2025 07:38:23.214 | Info | [07:38:23] ℹ️ INFO: 🔥 TIP SIGNAL - Raw: 10551.15, Z-Score: 2.06
04/02/2025 13:59:45.502 | Info | [13:59:45] ℹ️ INFO: 🔥 TIP SIGNAL - Raw: 15922.52, Z-Score: 3.42
04/02/2025 15:06:29.501 | Info | [15:06:29] ℹ️ INFO: 🔥 TIP SIGNAL - Raw: 14655.78, Z-Score: 2.83
04/02/2025 16:40:06.501 | Info | [16:40:06] ℹ️ INFO: 🔥 TIP SIGNAL - Raw: 16603.83, Z-Score: 3.14
04/02/2025 18:42:21.600 | Info | [18:42:21] ℹ️ INFO: 🔥 TIP SIGNAL - Raw: 12781.07, Z-Score: 2.07
05/02/2025 01:36:38.616 | Info | [01:36:38] ℹ️ INFO: 🔥 TIP SIGNAL - Raw: 18959.53, Z-Score: 3.26
05/02/2025 02:13:09.905 | Info | [02:13:09] ℹ️ INFO: 🔥 TIP SIGNAL - Raw: 22175.44, Z-Score: 3.71
05/02/2025 06:16:14.703 | Info | [06:16:14] ℹ️ INFO: 🔥 TIP SIGNAL - Raw: 18454.79, Z-Score: 2.69
05/02/2025 07:52:45.997 | Info | [07:52:45] ℹ️ INFO: 🔥 TIP SIGNAL - Raw: 22048.07, Z-Score: 3.24
05/02/2025 08:41:04.698 | Info | [08:41:04] ℹ️ INFO: 🌀 CORRECTION STARTED - FD: 1.66, P_zero: 1.04096
05/02/2025 17:51:58.200 | Info | [17:51:58] ℹ️ INFO: 🔥 TIP SIGNAL - Raw: 19951.86, Z-Score: 2.50
05/02/2025 20:03:27.500 | Info | [20:03:27] ℹ️ INFO: 🔥 TIP SIGNAL - Raw: 29757.47, Z-Score: 3.98
06/02/2025 09:22:26.102 | Info | [09:22:26] ℹ️ INFO: ✅ CORRECTION ENDED - FD: 1.45, P_zero: 1.04096, READY
