21/01/2025 00:00:00.000 | Info | CBot instance [HydrodynamicBot, EURUSD, Ra10] started.
21/01/2025 00:00:00.102 | Info | [00:00:00] ℹ️ INFO: ════════════════════════════════════════
21/01/2025 00:00:00.102 | Info | [00:00:00] ℹ️ INFO:  HydroDynamic Bot v8.2 - FINAL
21/01/2025 00:00:00.102 | Info | [00:00:00] ℹ️ INFO: ════════════════════════════════════════
21/01/2025 00:00:00.102 | Info | [00:00:00] ℹ️ INFO:  Symbol: EURUSD
21/01/2025 00:00:00.102 | Info | [00:00:00] ℹ️ INFO:  Timeframe: Range10
21/01/2025 00:00:00.102 | Info | [00:00:00] ℹ️ INFO:  Trading: ON ✅
21/01/2025 00:00:00.102 | Info | [00:00:00] ℹ️ INFO: ════════════════════════════════════════
21/01/2025 00:00:00.102 | Info | [00:00:00] ℹ️ INFO: ⏳ Calculating 200 bars...
21/01/2025 00:00:00.102 | Info | [00:00:00] ℹ️ INFO: ⏳ Warming up indicators (Last 500 bars)...
21/01/2025 00:00:00.102 | Info | [00:00:00] ℹ️ INFO: 🌀 CORRECTION STARTED - FD: 1.75, P_zero: 1.02865
21/01/2025 00:00:00.102 | Info | [00:00:00] ℹ️ INFO: ✅ CORRECTION ENDED - FD: 1.43, P_zero: 1.02865, READY
21/01/2025 00:00:00.102 | Info | [00:00:00] ℹ️ INFO: 🌀 CORRECTION STARTED - FD: 1.65, P_zero: 1.04302
21/01/2025 00:00:00.102 | Info | [00:00:00] ℹ️ INFO: ✅ CORRECTION ENDED - FD: 1.44, P_zero: 1.04302, READY
21/01/2025 00:00:00.102 | Info | [00:00:00] 🔍 DEBUG: Trend: State=1, Hurst=0.681, Slope=0.00002
21/01/2025 00:00:00.102 | Info | [00:00:00] 🔍 DEBUG: FD: 1.423, Status: STABLE
21/01/2025 00:00:00.102 | Info | [00:00:00] ℹ️ INFO: ✅ Ready - Analysis Complete
21/01/2025 00:00:00.102 | Info | [00:00:00] ℹ️ INFO: 🚀 Bot started successfully!
21/01/2025 00:00:58.502 | Info | [00:00:58] ⚠️ WARN: ⚠️ TOXIC MARKET - Score: 3.00
21/01/2025 00:00:58.802 | Info | [00:00:58] ⚠️ WARN: ⚠️ TOXIC MARKET - Score: 3.00
21/01/2025 00:00:59.901 | Info | [00:00:59] ⚠️ WARN: ⚠️ TOXIC MARKET - Score: 3.00
21/01/2025 00:01:01.504 | Info | [00:01:01] ⚠️ WARN: ⚠️ TOXIC MARKET - Score: 3.00
21/01/2025 00:01:04.502 | Info | [00:01:04] ⚠️ WARN: ⚠️ TOXIC MARKET - Score: 3.00
21/01/2025 00:01:05.205 | Info | [00:01:05] ⚠️ WARN: ⚠️ TOXIC MARKET - Score: 3.00
21/01/2025 00:06:56.203 | Info | [00:06:56] 🔍 DEBUG: Trend: State=1, Hurst=0.673, Slope=0.00002
21/01/2025 00:06:56.203 | Info | [00:06:56] 🔍 DEBUG: FD: 1.426, Status: STABLE
21/01/2025 00:10:07.202 | Info | [00:10:07] ⚠️ WARN: ⚠️ TOXIC MARKET - Score: 3.00
21/01/2025 00:10:07.504 | Info | [00:10:07] ⚠️ WARN: ⚠️ TOXIC MARKET - Score: 3.00
21/01/2025 00:10:08.202 | Info | [00:10:08] ⚠️ WARN: ⚠️ TOXIC MARKET - Score: 3.00
21/01/2025 00:10:08.802 | Info | [00:10:08] ⚠️ WARN: ⚠️ TOXIC MARKET - Score: 3.00
21/01/2025 00:10:09.403 | Info | [00:10:09] ⚠️ WARN: ⚠️ TOXIC MARKET - Score: 3.00
21/01/2025 00:10:11.403 | Info | [00:10:11] ⚠️ WARN: ⚠️ TOXIC MARKET - Score: 3.00
21/01/2025 00:10:12.102 | Info | [00:10:12] ⚠️ WARN: ⚠️ TOXIC MARKET - Score: 3.00
21/01/2025 00:10:12.501 | Info | [00:10:12] ⚠️ WARN: ⚠️ TOXIC MARKET - Score: 3.00
21/01/2025 00:10:13.402 | Info | [00:10:13] ⚠️ WARN: ⚠️ TOXIC MARKET - Score: 3.00
21/01/2025 00:10:14.101 | Info | [00:10:14] ⚠️ WARN: ⚠️ TOXIC MARKET - Score: 3.00
21/01/2025 00:10:14.402 | Info | [00:10:14] ⚠️ WARN: ⚠️ TOXIC MARKET - Score: 3.00
21/01/2025 00:10:15.701 | Info | [00:10:15] ⚠️ WARN: ⚠️ TOXIC MARKET - Score: 3.00
21/01/2025 00:10:16.006 | Info | [00:10:16] ⚠️ WARN: ⚠️ TOXIC MARKET - Score: 3.00
21/01/2025 00:10:17.302 | Info | [00:10:17] ⚠️ WARN: ⚠️ TOXIC MARKET - Score: 3.00
21/01/2025 00:10:17.703 | Info | [00:10:17] ⚠️ WARN: ⚠️ TOXIC MARKET - Score: 3.00
21/01/2025 00:10:18.003 | Info | [00:10:18] ⚠️ WARN: ⚠️ TOXIC MARKET - Score: 3.00
21/01/2025 00:10:18.305 | Info | [00:10:18] ⚠️ WARN: ⚠️ TOXIC MARKET - Score: 3.00
21/01/2025 00:10:18.701 | Info | [00:10:18] ⚠️ WARN: ⚠️ TOXIC MARKET - Score: 3.00
21/01/2025 00:10:19.701 | Info | [00:10:19] ⚠️ WARN: ⚠️ TOXIC MARKET - Score: 3.00
21/01/2025 00:10:20.701 | Info | [00:10:20] ⚠️ WARN: ⚠️ TOXIC MARKET - Score: 3.00
21/01/2025 00:10:21.301 | Info | [00:10:21] ⚠️ WARN: ⚠️ TOXIC MARKET - Score: 3.00
21/01/2025 00:10:24.503 | Info | [00:10:24] ⚠️ WARN: ⚠️ TOXIC MARKET - Score: 3.00
21/01/2025 00:10:25.202 | Info | [00:10:25] ⚠️ WARN: ⚠️ TOXIC MARKET - Score: 3.00
21/01/2025 00:10:27.704 | Info | [00:10:27] ⚠️ WARN: ⚠️ TOXIC MARKET - Score: 3.00
21/01/2025 00:10:28.402 | Info | [00:10:28] ⚠️ WARN: ⚠️ TOXIC MARKET - Score: 3.00
21/01/2025 00:10:28.702 | Info | [00:10:28] ⚠️ WARN: ⚠️ TOXIC MARKET - Score: 3.00
21/01/2025 00:10:32.301 | Info | [00:10:32] ⚠️ WARN: ⚠️ TOXIC MARKET - Score: 3.00
21/01/2025 00:10:33.506 | Info | [00:10:33] ⚠️ WARN: ⚠️ TOXIC MARKET - Score: 3.00
21/01/2025 00:10:33.903 | Info | [00:10:33] ⚠️ WARN: ⚠️ TOXIC MARKET - Score: 3.00
21/01/2025 00:10:34.601 | Info | [00:10:34] ⚠️ WARN: ⚠️ TOXIC MARKET - Score: 3.00
21/01/2025 00:10:35.202 | Info | [00:10:35] ⚠️ WARN: ⚠️ TOXIC MARKET - Score: 3.00
21/01/2025 00:10:35.802 | Info | [00:10:35] ⚠️ WARN: ⚠️ TOXIC MARKET - Score: 3.00
21/01/2025 00:10:36.801 | Info | [00:10:36] ⚠️ WARN: ⚠️ TOXIC MARKET - Score: 3.00
21/01/2025 00:10:37.705 | Info | [00:10:37] ⚠️ WARN: ⚠️ TOXIC MARKET - Score: 3.00
21/01/2025 00:10:41.701 | Info | [00:10:41] ⚠️ WARN: ⚠️ TOXIC MARKET - Score: 3.00
21/01/2025 00:15:08.301 | Info | [00:15:08] ⚠️ WARN: ⚠️ TOXIC MARKET - Score: 3.00
21/01/2025 00:15:08.601 | Info | [00:15:08] ⚠️ WARN: ⚠️ TOXIC MARKET - Score: 3.00
21/01/2025 00:15:09.506 | Info | [00:15:09] ⚠️ WARN: ⚠️ TOXIC MARKET - Score: 3.00
21/01/2025 00:15:09.902 | Info | [00:15:09] ⚠️ WARN: ⚠️ TOXIC MARKET - Score: 3.00
21/01/2025 00:15:10.301 | Info | [00:15:10] ⚠️ WARN: ⚠️ TOXIC MARKET - Score: 3.00
21/01/2025 00:15:10.601 | Info | [00:15:10] ⚠️ WARN: ⚠️ TOXIC MARKET - Score: 3.00
21/01/2025 00:15:10.902 | Info | [00:15:10] ⚠️ WARN: ⚠️ TOXIC MARKET - Score: 3.00
21/01/2025 00:15:11.602 | Info | [00:15:11] ⚠️ WARN: ⚠️ TOXIC MARKET - Score: 3.00
21/01/2025 00:15:12.202 | Info | [00:15:12] ⚠️ WARN: ⚠️ TOXIC MARKET - Score: 3.00
21/01/2025 00:15:12.602 | Info | [00:15:12] ⚠️ WARN: ⚠️ TOXIC MARKET - Score: 3.00
21/01/2025 00:15:14.105 | Info | [00:15:14] ⚠️ WARN: ⚠️ TOXIC MARKET - Score: 3.00
21/01/2025 00:15:14.405 | Info | [00:15:14] ⚠️ WARN: ⚠️ TOXIC MARKET - Score: 3.00
21/01/2025 00:15:14.705 | Info | [00:15:14] ⚠️ WARN: ⚠️ TOXIC MARKET - Score: 3.00
21/01/2025 00:15:15.104 | Info | [00:15:15] ⚠️ WARN: ⚠️ TOXIC MARKET - Score: 3.00
21/01/2025 00:15:15.801 | Info | [00:15:15] ⚠️ WARN: ⚠️ TOXIC MARKET - Score: 3.00
21/01/2025 00:15:16.704 | Info | [00:15:16] ⚠️ WARN: ⚠️ TOXIC MARKET - Score: 3.00
21/01/2025 00:15:17.004 | Info | [00:15:17] ⚠️ WARN: ⚠️ TOXIC MARKET - Score: 3.00
21/01/2025 00:15:17.304 | Info | [00:15:17] ⚠️ WARN: ⚠️ TOXIC MARKET - Score: 3.00
21/01/2025 00:15:18.302 | Info | [00:15:18] ⚠️ WARN: ⚠️ TOXIC MARKET - Score: 3.00
21/01/2025 00:15:18.302 | Info | [00:15:18] 🔍 DEBUG: Trend: State=1, Hurst=0.660, Slope=0.00003
21/01/2025 00:15:18.302 | Info | [00:15:18] 🔍 DEBUG: FD: 1.420, Status: STABLE
21/01/2025 00:15:18.602 | Info | [00:15:18] ⚠️ WARN: ⚠️ TOXIC MARKET - Score: 3.00
21/01/2025 00:15:18.902 | Info | [00:15:18] ⚠️ WARN: ⚠️ TOXIC MARKET - Score: 3.00
21/01/2025 00:15:19.202 | Info | [00:15:19] ⚠️ WARN: ⚠️ TOXIC MARKET - Score: 3.00
21/01/2025 00:15:19.505 | Info | [00:15:19] ⚠️ WARN: ⚠️ TOXIC MARKET - Score: 3.00
21/01/2025 00:15:20.504 | Info | [00:15:20] ⚠️ WARN: ⚠️ TOXIC MARKET - Score: 3.00
21/01/2025 00:15:20.900 | Info | [00:15:20] ⚠️ WARN: ⚠️ TOXIC MARKET - Score: 3.00
21/01/2025 00:15:22.101 | Info | [00:15:22] ⚠️ WARN: ⚠️ TOXIC MARKET - Score: 3.00
21/01/2025 00:15:22.409 | Info | [00:15:22] ⚠️ WARN: ⚠️ TOXIC MARKET - Score: 3.00
21/01/2025 00:15:22.803 | Info | [00:15:22] ⚠️ WARN: ⚠️ TOXIC MARKET - Score: 3.00
21/01/2025 00:15:24.405 | Info | [00:15:24] ⚠️ WARN: ⚠️ TOXIC MARKET - Score: 3.00
21/01/2025 00:15:26.304 | Info | [00:15:26] ⚠️ WARN: ⚠️ TOXIC MARKET - Score: 3.00
21/01/2025 00:15:27.101 | Info | [00:15:27] ⚠️ WARN: ⚠️ TOXIC MARKET - Score: 3.00
21/01/2025 00:15:28.101 | Info | [00:15:28] ⚠️ WARN: ⚠️ TOXIC MARKET - Score: 3.00
21/01/2025 00:19:35.202 | Info | [00:19:35] ⚠️ WARN: ⚠️ TOXIC MARKET - Score: 3.00
21/01/2025 00:19:37.104 | Info | [00:19:37] ⚠️ WARN: ⚠️ TOXIC MARKET - Score: 3.00
21/01/2025 00:19:55.903 | Info | [00:19:55] ⚠️ WARN: ⚠️ TOXIC MARKET - Score: 3.00
21/01/2025 00:19:56.212 | Info | [00:19:56] ⚠️ WARN: ⚠️ TOXIC MARKET - Score: 3.00
21/01/2025 00:19:56.602 | Info | [00:19:56] ⚠️ WARN: ⚠️ TOXIC MARKET - Score: 3.00
21/01/2025 00:19:57.607 | Info | [00:19:57] ⚠️ WARN: ⚠️ TOXIC MARKET - Score: 3.00
21/01/2025 00:19:58.000 | Info | [00:19:58] ⚠️ WARN: ⚠️ TOXIC MARKET - Score: 3.00
21/01/2025 00:19:58.301 | Info | [00:19:58] ⚠️ WARN: ⚠️ TOXIC MARKET - Score: 3.00
21/01/2025 00:24:11.606 | Info | [00:24:11] ⚠️ WARN: ⚠️ TOXIC MARKET - Score: 3.00
21/01/2025 00:25:03.501 | Info | [00:25:03] ⚠️ WARN: ⚠️ TOXIC MARKET - Score: 3.00
21/01/2025 00:27:18.102 | Info | [00:27:18] ⚠️ WARN: ⚠️ TOXIC MARKET - Score: 3.00
21/01/2025 00:28:45.802 | Info | [00:28:45] ⚠️ WARN: ⚠️ TOXIC MARKET - Score: 3.00
21/01/2025 00:30:45.001 | Info | [00:30:45] ⚠️ WARN: ⚠️ TOXIC MARKET - Score: 3.00
21/01/2025 00:35:30.302 | Info | [00:35:30] 🔍 DEBUG: Trend: State=1, Hurst=0.644, Slope=0.00003
21/01/2025 00:35:30.302 | Info | [00:35:30] 🔍 DEBUG: FD: 1.422, Status: STABLE
21/01/2025 00:36:50.802 | Info | [00:36:50] ⚠️ WARN: ⚠️ TOXIC MARKET - Score: 3.00
21/01/2025 00:37:15.902 | Info | [00:37:15] ⚠️ WARN: ⚠️ TOXIC MARKET - Score: 3.00
21/01/2025 00:38:16.802 | Info | [00:38:16] ⚠️ WARN: ⚠️ TOXIC MARKET - Score: 3.00
21/01/2025 00:39:21.603 | Info | [00:39:21] ⚠️ WARN: ⚠️ TOXIC MARKET - Score: 3.00
21/01/2025 00:39:22.602 | Info | [00:39:22] ⚠️ WARN: ⚠️ TOXIC MARKET - Score: 3.00
21/01/2025 00:39:23.002 | Info | [00:39:23] ⚠️ WARN: ⚠️ TOXIC MARKET - Score: 3.00
21/01/2025 00:39:23.603 | Info | [00:39:23] ⚠️ WARN: ⚠️ TOXIC MARKET - Score: 3.00
21/01/2025 00:39:24.206 | Info | [00:39:24] ⚠️ WARN: ⚠️ TOXIC MARKET - Score: 3.00
21/01/2025 00:39:24.602 | Info | [00:39:24] ⚠️ WARN: ⚠️ TOXIC MARKET - Score: 3.00
21/01/2025 00:41:58.006 | Info | [00:41:58] ⚠️ WARN: ⚠️ TOXIC MARKET - Score: 3.00
21/01/2025 00:45:00.606 | Info | [00:45:00] ⚠️ WARN: ⚠️ TOXIC MARKET - Score: 3.00
21/01/2025 00:45:01.301 | Info | [00:45:01] ⚠️ WARN: ⚠️ TOXIC MARKET - Score: 3.00
21/01/2025 00:45:02.601 | Info | [00:45:02] ⚠️ WARN: ⚠️ TOXIC MARKET - Score: 3.00
21/01/2025 00:45:36.901 | Info | [00:45:36] ⚠️ WARN: ⚠️ TOXIC MARKET - Score: 3.00
21/01/2025 00:45:37.202 | Info | [00:45:37] ⚠️ WARN: ⚠️ TOXIC MARKET - Score: 3.00
21/01/2025 00:45:38.502 | Info | [00:45:38] ⚠️ WARN: ⚠️ TOXIC MARKET - Score: 3.00
21/01/2025 00:45:39.403 | Info | [00:45:39] ⚠️ WARN: ⚠️ TOXIC MARKET - Score: 3.00
21/01/2025 00:45:41.302 | Info | [00:45:41] ⚠️ WARN: ⚠️ TOXIC MARKET - Score: 3.00
21/01/2025 00:45:42.806 | Info | [00:45:42] ⚠️ WARN: ⚠️ TOXIC MARKET - Score: 3.00
21/01/2025 00:45:43.502 | Info | [00:45:43] ⚠️ WARN: ⚠️ TOXIC MARKET - Score: 3.00
21/01/2025 00:45:43.902 | Info | [00:45:43] ⚠️ WARN: ⚠️ TOXIC MARKET - Score: 3.00
21/01/2025 00:45:45.603 | Info | [00:45:45] ⚠️ WARN: ⚠️ TOXIC MARKET - Score: 3.00
21/01/2025 00:45:46.602 | Info | [00:45:46] ⚠️ WARN: ⚠️ TOXIC MARKET - Score: 3.00
21/01/2025 00:45:47.207 | Info | [00:45:47] ⚠️ WARN: ⚠️ TOXIC MARKET - Score: 3.00
21/01/2025 00:45:47.603 | Info | [00:45:47] ⚠️ WARN: ⚠️ TOXIC MARKET - Score: 3.00
21/01/2025 00:45:48.001 | Info | [00:45:48] ⚠️ WARN: ⚠️ TOXIC MARKET - Score: 3.00
21/01/2025 00:45:48.302 | Info | [00:45:48] ⚠️ WARN: ⚠️ TOXIC MARKET - Score: 3.00
21/01/2025 00:45:50.203 | Info | [00:45:50] ⚠️ WARN: ⚠️ TOXIC MARKET - Score: 3.00
21/01/2025 00:45:50.505 | Info | [00:45:50] ⚠️ WARN: ⚠️ TOXIC MARKET - Score: 3.00
21/01/2025 00:45:52.205 | Info | [00:45:52] ⚠️ WARN: ⚠️ TOXIC MARKET - Score: 3.00
21/01/2025 00:45:52.507 | Info | [00:45:52] ⚠️ WARN: ⚠️ TOXIC MARKET - Score: 3.00
21/01/2025 00:46:42.603 | Info | [00:46:42] ⚠️ WARN: ⚠️ TOXIC MARKET - Score: 3.00
21/01/2025 00:46:43.001 | Info | [00:46:43] ⚠️ WARN: ⚠️ TOXIC MARKET - Score: 3.00
21/01/2025 00:46:44.001 | Info | [00:46:44] ⚠️ WARN: ⚠️ TOXIC MARKET - Score: 3.00
21/01/2025 00:46:45.902 | Info | [00:46:45] ⚠️ WARN: ⚠️ TOXIC MARKET - Score: 3.00
21/01/2025 00:46:46.202 | Info | [00:46:46] ⚠️ WARN: ⚠️ TOXIC MARKET - Score: 3.00
21/01/2025 00:46:46.802 | Info | [00:46:46] ⚠️ WARN: ⚠️ TOXIC MARKET - Score: 3.00
21/01/2025 00:46:54.307 | Info | [00:46:54] ⚠️ WARN: ⚠️ TOXIC MARKET - Score: 3.00
21/01/2025 00:46:54.701 | Info | [00:46:54] ⚠️ WARN: ⚠️ TOXIC MARKET - Score: 3.00
21/01/2025 00:46:55.301 | Info | [00:46:55] ⚠️ WARN: ⚠️ TOXIC MARKET - Score: 3.00
21/01/2025 00:46:55.604 | Info | [00:46:55] ⚠️ WARN: ⚠️ TOXIC MARKET - Score: 3.00
21/01/2025 00:46:56.000 | Info | [00:46:56] ⚠️ WARN: ⚠️ TOXIC MARKET - Score: 3.00
21/01/2025 00:46:56.303 | Info | [00:46:56] ⚠️ WARN: ⚠️ TOXIC MARKET - Score: 3.00
21/01/2025 00:46:56.904 | Info | [00:46:56] ⚠️ WARN: ⚠️ TOXIC MARKET - Score: 3.00
21/01/2025 00:46:57.204 | Info | [00:46:57] ⚠️ WARN: ⚠️ TOXIC MARKET - Score: 3.00
21/01/2025 00:46:57.505 | Info | [00:46:57] ⚠️ WARN: ⚠️ TOXIC MARKET - Score: 3.00
21/01/2025 00:49:46.702 | Info | [00:49:46] ⚠️ WARN: ⚠️ TOXIC MARKET - Score: 3.00
21/01/2025 00:49:47.305 | Info | [00:49:47] ⚠️ WARN: ⚠️ TOXIC MARKET - Score: 3.00
21/01/2025 00:49:47.607 | Info | [00:49:47] ⚠️ WARN: ⚠️ TOXIC MARKET - Score: 3.00
21/01/2025 00:49:48.000 | Info | [00:49:48] ⚠️ WARN: ⚠️ TOXIC MARKET - Score: 3.00
21/01/2025 00:49:48.301 | Info | [00:49:48] ⚠️ WARN: ⚠️ TOXIC MARKET - Score: 3.00
21/01/2025 00:49:49.205 | Info | [00:49:49] ⚠️ WARN: ⚠️ TOXIC MARKET - Score: 3.00
21/01/2025 00:49:49.505 | Info | [00:49:49] ⚠️ WARN: ⚠️ TOXIC MARKET - Score: 3.00
21/01/2025 00:49:49.808 | Info | [00:49:49] ⚠️ WARN: ⚠️ TOXIC MARKET - Score: 3.00
21/01/2025 00:49:50.905 | Info | [00:49:50] ⚠️ WARN: ⚠️ TOXIC MARKET - Score: 3.00
21/01/2025 00:49:51.222 | Info | [00:49:51] ⚠️ WARN: ⚠️ TOXIC MARKET - Score: 3.00
21/01/2025 00:49:51.601 | Info | [00:49:51] ⚠️ WARN: ⚠️ TOXIC MARKET - Score: 3.00
21/01/2025 00:49:51.902 | Info | [00:49:51] ⚠️ WARN: ⚠️ TOXIC MARKET - Score: 3.00
21/01/2025 00:49:52.209 | Info | [00:49:52] ⚠️ WARN: ⚠️ TOXIC MARKET - Score: 3.00
21/01/2025 00:49:52.605 | Info | [00:49:52] ⚠️ WARN: ⚠️ TOXIC MARKET - Score: 3.00
21/01/2025 00:49:52.905 | Info | [00:49:52] ⚠️ WARN: ⚠️ TOXIC MARKET - Score: 3.00
21/01/2025 00:49:53.205 | Info | [00:49:53] ⚠️ WARN: ⚠️ TOXIC MARKET - Score: 3.00
21/01/2025 00:49:53.602 | Info | [00:49:53] ⚠️ WARN: ⚠️ TOXIC MARKET - Score: 3.00
21/01/2025 00:49:54.605 | Info | [00:49:54] ⚠️ WARN: ⚠️ TOXIC MARKET - Score: 3.00
21/01/2025 00:49:54.905 | Info | [00:49:54] ⚠️ WARN: ⚠️ TOXIC MARKET - Score: 3.00
21/01/2025 00:50:03.803 | Info | [00:50:03] 🔍 DEBUG: Trend: State=1, Hurst=0.655, Slope=0.00003
21/01/2025 00:50:03.803 | Info | [00:50:03] 🔍 DEBUG: FD: 1.441, Status: STABLE
21/01/2025 00:50:22.910 | Info | [00:50:22] 🔍 DEBUG: Trend: State=1, Hurst=0.662, Slope=0.00003
21/01/2025 00:50:22.910 | Info | [00:50:22] 🔍 DEBUG: FD: 1.437, Status: STABLE
21/01/2025 00:50:39.605 | Info | [00:50:39] 🔍 DEBUG: Trend: State=1, Hurst=0.647, Slope=0.00002
21/01/2025 00:50:39.605 | Info | [00:50:39] 🔍 DEBUG: FD: 1.441, Status: STABLE
21/01/2025 00:51:05.308 | Info | [00:51:05] 🔍 DEBUG: Trend: State=1, Hurst=0.650, Slope=0.00002
21/01/2025 00:51:05.308 | Info | [00:51:05] 🔍 DEBUG: FD: 1.442, Status: STABLE
21/01/2025 00:51:34.102 | Info | [00:51:34] 🔍 DEBUG: Trend: State=1, Hurst=0.655, Slope=0.00001
21/01/2025 00:51:34.102 | Info | [00:51:34] 🔍 DEBUG: FD: 1.434, Status: STABLE
21/01/2025 00:52:09.604 | Info | [00:52:09] 🔍 DEBUG: Trend: State=1, Hurst=0.708, Slope=0.00001
21/01/2025 00:52:09.604 | Info | [00:52:09] 🔍 DEBUG: FD: 1.416, Status: STABLE
21/01/2025 00:52:27.302 | Info | [00:52:27] 🔍 DEBUG: Trend: State=1, Hurst=0.708, Slope=0.00000
21/01/2025 00:52:27.302 | Info | [00:52:27] 🔍 DEBUG: FD: 1.403, Status: STABLE
21/01/2025 00:52:45.203 | Info | [00:52:45] 🔍 DEBUG: Trend: State=-1, Hurst=0.669, Slope=-0.00000
21/01/2025 00:52:45.203 | Info | [00:52:45] 🔍 DEBUG: FD: 1.402, Status: STABLE
21/01/2025 00:53:13.000 | Info | [00:53:13] 🔍 DEBUG: Trend: State=-1, Hurst=0.619, Slope=-0.00001
21/01/2025 00:53:13.000 | Info | [00:53:13] 🔍 DEBUG: FD: 1.380, Status: STABLE
21/01/2025 00:54:35.605 | Info | [00:54:35] 🔍 DEBUG: Trend: State=-1, Hurst=0.629, Slope=-0.00001
21/01/2025 00:54:35.605 | Info | [00:54:35] 🔍 DEBUG: FD: 1.368, Status: STABLE
21/01/2025 00:56:08.906 | Info | [00:56:08] 🔍 DEBUG: Trend: State=-1, Hurst=0.650, Slope=-0.00002
21/01/2025 00:56:08.906 | Info | [00:56:08] 🔍 DEBUG: FD: 1.352, Status: STABLE
21/01/2025 00:56:54.805 | Info | [00:56:54] 🔍 DEBUG: Trend: State=-1, Hurst=0.664, Slope=-0.00003
21/01/2025 00:56:54.805 | Info | [00:56:54] 🔍 DEBUG: FD: 1.335, Status: STABLE
21/01/2025 00:57:39.903 | Info | [00:57:39] 🔍 DEBUG: Trend: State=-1, Hurst=0.650, Slope=-0.00003
21/01/2025 00:57:39.903 | Info | [00:57:39] 🔍 DEBUG: FD: 1.334, Status: STABLE
21/01/2025 01:00:31.502 | Info | [01:00:31] 🔍 DEBUG: Trend: State=-1, Hurst=0.664, Slope=-0.00003
21/01/2025 01:00:31.502 | Info | [01:00:31] 🔍 DEBUG: FD: 1.350, Status: STABLE
21/01/2025 01:01:41.105 | Info | [01:01:41] ⚠️ WARN: ⚠️ TOXIC MARKET - Score: 3.00
21/01/2025 01:02:31.702 | Info | [01:02:31] ⚠️ WARN: ⚠️ TOXIC MARKET - Score: 3.00
21/01/2025 01:02:49.705 | Info | [01:02:49] ⚠️ WARN: ⚠️ TOXIC MARKET - Score: 3.00
21/01/2025 01:03:40.207 | Info | [01:03:40] 🔍 DEBUG: Trend: State=-1, Hurst=0.645, Slope=-0.00004
21/01/2025 01:03:40.207 | Info | [01:03:40] 🔍 DEBUG: FD: 1.359, Status: STABLE
21/01/2025 01:06:00.504 | Info | [01:06:00] 🔍 DEBUG: Trend: State=-1, Hurst=0.635, Slope=-0.00004
21/01/2025 01:06:00.504 | Info | [01:06:00] 🔍 DEBUG: FD: 1.373, Status: STABLE
21/01/2025 01:09:24.102 | Info | [01:09:24] ⚠️ WARN: ⚠️ TOXIC MARKET - Score: 3.00
21/01/2025 01:10:20.005 | Info | [01:10:20] 🔍 DEBUG: Trend: State=-1, Hurst=0.655, Slope=-0.00004
21/01/2025 01:10:20.005 | Info | [01:10:20] 🔍 DEBUG: FD: 1.383, Status: STABLE
21/01/2025 01:10:29.403 | Info | [01:10:29] ⚠️ WARN: ⚠️ TOXIC MARKET - Score: 3.00
21/01/2025 01:10:31.706 | Info | [01:10:31] ⚠️ WARN: ⚠️ TOXIC MARKET - Score: 3.00
21/01/2025 01:10:32.400 | Info | [01:10:32] ⚠️ WARN: ⚠️ TOXIC MARKET - Score: 3.00
21/01/2025 01:10:32.701 | Info | [01:10:32] ⚠️ WARN: ⚠️ TOXIC MARKET - Score: 3.00
21/01/2025 01:12:41.602 | Info | [01:12:41] ⚠️ WARN: ⚠️ TOXIC MARKET - Score: 3.00
21/01/2025 01:12:42.505 | Info | [01:12:42] ⚠️ WARN: ⚠️ TOXIC MARKET - Score: 3.00
21/01/2025 01:12:43.205 | Info | [01:12:43] ⚠️ WARN: ⚠️ TOXIC MARKET - Score: 3.00
21/01/2025 01:12:43.604 | Info | [01:12:43] ⚠️ WARN: ⚠️ TOXIC MARKET - Score: 3.00
21/01/2025 01:12:43.906 | Info | [01:12:43] ⚠️ WARN: ⚠️ TOXIC MARKET - Score: 3.00
21/01/2025 01:12:44.602 | Info | [01:12:44] ⚠️ WARN: ⚠️ TOXIC MARKET - Score: 3.00
21/01/2025 01:12:46.601 | Info | [01:12:46] ⚠️ WARN: ⚠️ TOXIC MARKET - Score: 3.00
21/01/2025 01:12:47.202 | Info | [01:12:47] ⚠️ WARN: ⚠️ TOXIC MARKET - Score: 3.00
21/01/2025 01:12:47.503 | Info | [01:12:47] ⚠️ WARN: ⚠️ TOXIC MARKET - Score: 3.00
21/01/2025 01:12:48.106 | Info | [01:12:48] ⚠️ WARN: ⚠️ TOXIC MARKET - Score: 3.00
21/01/2025 01:12:48.410 | Info | [01:12:48] ⚠️ WARN: ⚠️ TOXIC MARKET - Score: 3.00
21/01/2025 01:12:52.005 | Info | [01:12:52] ⚠️ WARN: ⚠️ TOXIC MARKET - Score: 3.00
21/01/2025 01:12:52.606 | Info | [01:12:52] ⚠️ WARN: ⚠️ TOXIC MARKET - Score: 3.00
21/01/2025 01:12:53.000 | Info | [01:12:53] ⚠️ WARN: ⚠️ TOXIC MARKET - Score: 3.00
21/01/2025 01:12:53.303 | Info | [01:12:53] ⚠️ WARN: ⚠️ TOXIC MARKET - Score: 3.00
21/01/2025 01:12:53.603 | Info | [01:12:53] ⚠️ WARN: ⚠️ TOXIC MARKET - Score: 3.00
21/01/2025 01:12:53.904 | Info | [01:12:53] ⚠️ WARN: ⚠️ TOXIC MARKET - Score: 3.00
21/01/2025 01:12:54.206 | Info | [01:12:54] ⚠️ WARN: ⚠️ TOXIC MARKET - Score: 3.00
21/01/2025 01:12:54.602 | Info | [01:12:54] ⚠️ WARN: ⚠️ TOXIC MARKET - Score: 3.00
21/01/2025 01:12:54.902 | Info | [01:12:54] ⚠️ WARN: ⚠️ TOXIC MARKET - Score: 3.00
21/01/2025 01:12:55.202 | Info | [01:12:55] ⚠️ WARN: ⚠️ TOXIC MARKET - Score: 3.00
21/01/2025 01:12:55.504 | Info | [01:12:55] ⚠️ WARN: ⚠️ TOXIC MARKET - Score: 3.00
21/01/2025 01:12:56.202 | Info | [01:12:56] ⚠️ WARN: ⚠️ TOXIC MARKET - Score: 3.00
21/01/2025 01:12:56.804 | Info | [01:12:56] ⚠️ WARN: ⚠️ TOXIC MARKET - Score: 3.00
21/01/2025 01:12:57.907 | Info | [01:12:57] ⚠️ WARN: ⚠️ TOXIC MARKET - Score: 3.00
21/01/2025 01:12:58.601 | Info | [01:12:58] ⚠️ WARN: ⚠️ TOXIC MARKET - Score: 3.00
21/01/2025 01:12:58.903 | Info | [01:12:58] ⚠️ WARN: ⚠️ TOXIC MARKET - Score: 3.00
21/01/2025 01:12:59.605 | Info | [01:12:59] ⚠️ WARN: ⚠️ TOXIC MARKET - Score: 3.00
21/01/2025 01:12:59.905 | Info | [01:12:59] ⚠️ WARN: ⚠️ TOXIC MARKET - Score: 3.00
21/01/2025 01:13:00.219 | Info | [01:13:00] ⚠️ WARN: ⚠️ TOXIC MARKET - Score: 3.00
21/01/2025 01:13:00.603 | Info | [01:13:00] ⚠️ WARN: ⚠️ TOXIC MARKET - Score: 3.00
21/01/2025 01:13:00.903 | Info | [01:13:00] ⚠️ WARN: ⚠️ TOXIC MARKET - Score: 3.00
21/01/2025 01:13:01.302 | Info | [01:13:01] ⚠️ WARN: ⚠️ TOXIC MARKET - Score: 3.00
21/01/2025 01:13:01.603 | Info | [01:13:01] ⚠️ WARN: ⚠️ TOXIC MARKET - Score: 3.00
21/01/2025 01:13:02.307 | Info | [01:13:02] ⚠️ WARN: ⚠️ TOXIC MARKET - Score: 3.00
21/01/2025 01:13:02.703 | Info | [01:13:02] ⚠️ WARN: ⚠️ TOXIC MARKET - Score: 3.00
21/01/2025 01:13:03.305 | Info | [01:13:03] ⚠️ WARN: ⚠️ TOXIC MARKET - Score: 3.00
21/01/2025 01:13:03.606 | Info | [01:13:03] ⚠️ WARN: ⚠️ TOXIC MARKET - Score: 3.00
21/01/2025 01:13:03.906 | Info | [01:13:03] ⚠️ WARN: ⚠️ TOXIC MARKET - Score: 3.00
21/01/2025 01:13:05.307 | Info | [01:13:05] ⚠️ WARN: ⚠️ TOXIC MARKET - Score: 3.00
21/01/2025 01:13:05.307 | Info | [01:13:05] 🔍 DEBUG: Trend: State=-1, Hurst=0.631, Slope=-0.00004
21/01/2025 01:13:05.307 | Info | [01:13:05] 🔍 DEBUG: FD: 1.386, Status: STABLE
21/01/2025 01:13:05.610 | Info | [01:13:05] ⚠️ WARN: ⚠️ TOXIC MARKET - Score: 3.00
21/01/2025 01:13:06.001 | Info | [01:13:06] ⚠️ WARN: ⚠️ TOXIC MARKET - Score: 3.00
21/01/2025 01:13:06.303 | Info | [01:13:06] ⚠️ WARN: ⚠️ TOXIC MARKET - Score: 3.00
21/01/2025 01:13:06.603 | Info | [01:13:06] ⚠️ WARN: ⚠️ TOXIC MARKET - Score: 3.00
21/01/2025 01:13:06.906 | Info | [01:13:06] ⚠️ WARN: ⚠️ TOXIC MARKET - Score: 3.00
21/01/2025 01:13:07.304 | Info | [01:13:07] ⚠️ WARN: ⚠️ TOXIC MARKET - Score: 3.00
21/01/2025 01:13:25.002 | Info | [01:13:25] ⚠️ WARN: ⚠️ TOXIC MARKET - Score: 3.00
21/01/2025 01:13:25.302 | Info | [01:13:25] ⚠️ WARN: ⚠️ TOXIC MARKET - Score: 3.00
21/01/2025 01:13:25.602 | Info | [01:13:25] ⚠️ WARN: ⚠️ TOXIC MARKET - Score: 3.00
21/01/2025 01:13:25.902 | Info | [01:13:25] ⚠️ WARN: ⚠️ TOXIC MARKET - Score: 3.00
21/01/2025 01:13:26.502 | Info | [01:13:26] ⚠️ WARN: ⚠️ TOXIC MARKET - Score: 3.00
21/01/2025 01:13:28.804 | Info | [01:13:28] ⚠️ WARN: ⚠️ TOXIC MARKET - Score: 3.00
21/01/2025 01:13:35.904 | Info | [01:13:35] ⚠️ WARN: ⚠️ TOXIC MARKET - Score: 3.00
21/01/2025 01:13:36.602 | Info | [01:13:36] ⚠️ WARN: ⚠️ TOXIC MARKET - Score: 3.00
21/01/2025 01:13:36.903 | Info | [01:13:36] ⚠️ WARN: ⚠️ TOXIC MARKET - Score: 3.00
21/01/2025 01:13:38.303 | Info | [01:13:38] ⚠️ WARN: ⚠️ TOXIC MARKET - Score: 3.00
21/01/2025 01:13:38.702 | Info | [01:13:38] ⚠️ WARN: ⚠️ TOXIC MARKET - Score: 3.00
21/01/2025 01:13:41.902 | Info | [01:13:41] ⚠️ WARN: ⚠️ TOXIC MARKET - Score: 3.00
21/01/2025 01:13:45.202 | Info | [01:13:45] ⚠️ WARN: ⚠️ TOXIC MARKET - Score: 3.00
21/01/2025 01:13:46.202 | Info | [01:13:46] ⚠️ WARN: ⚠️ TOXIC MARKET - Score: 3.00
21/01/2025 01:13:47.104 | Info | [01:13:47] ⚠️ WARN: ⚠️ TOXIC MARKET - Score: 3.00
21/01/2025 01:13:47.801 | Info | [01:13:47] ⚠️ WARN: ⚠️ TOXIC MARKET - Score: 3.00
21/01/2025 01:13:48.102 | Info | [01:13:48] ⚠️ WARN: ⚠️ TOXIC MARKET - Score: 3.00
21/01/2025 01:13:54.802 | Info | [01:13:54] ⚠️ WARN: ⚠️ TOXIC MARKET - Score: 3.00
21/01/2025 01:13:55.105 | Info | [01:13:55] ⚠️ WARN: ⚠️ TOXIC MARKET - Score: 3.00
21/01/2025 01:14:02.001 | Info | [01:14:02] ⚠️ WARN: ⚠️ TOXIC MARKET - Score: 3.00
21/01/2025 01:14:02.304 | Info | [01:14:02] ⚠️ WARN: ⚠️ TOXIC MARKET - Score: 3.00
21/01/2025 01:14:03.008 | Info | [01:14:03] ⚠️ WARN: ⚠️ TOXIC MARKET - Score: 3.00
21/01/2025 01:14:08.205 | Info | [01:14:08] ⚠️ WARN: ⚠️ TOXIC MARKET - Score: 3.00
21/01/2025 01:14:09.504 | Info | [01:14:09] ⚠️ WARN: ⚠️ TOXIC MARKET - Score: 3.00
21/01/2025 01:14:09.907 | Info | [01:14:09] ⚠️ WARN: ⚠️ TOXIC MARKET - Score: 3.00
21/01/2025 01:14:25.301 | Info | [01:14:25] ⚠️ WARN: ⚠️ TOXIC MARKET - Score: 3.00
21/01/2025 01:14:26.605 | Info | [01:14:26] ⚠️ WARN: ⚠️ TOXIC MARKET - Score: 3.00
21/01/2025 01:14:27.000 | Info | [01:14:27] ⚠️ WARN: ⚠️ TOXIC MARKET - Score: 3.00
21/01/2025 01:14:27.701 | Info | [01:14:27] ⚠️ WARN: ⚠️ TOXIC MARKET - Score: 3.00
21/01/2025 01:14:28.302 | Info | [01:14:28] ⚠️ WARN: ⚠️ TOXIC MARKET - Score: 3.00
21/01/2025 01:14:28.604 | Info | [01:14:28] ⚠️ WARN: ⚠️ TOXIC MARKET - Score: 3.00
21/01/2025 01:14:28.905 | Info | [01:14:28] ⚠️ WARN: ⚠️ TOXIC MARKET - Score: 3.00
21/01/2025 01:14:29.506 | Info | [01:14:29] ⚠️ WARN: ⚠️ TOXIC MARKET - Score: 3.00
21/01/2025 01:14:48.902 | Info | [01:14:48] ⚠️ WARN: ⚠️ TOXIC MARKET - Score: 3.00
21/01/2025 01:14:50.202 | Info | [01:14:50] ⚠️ WARN: ⚠️ TOXIC MARKET - Score: 3.00
21/01/2025 01:14:56.505 | Info | [01:14:56] ⚠️ WARN: ⚠️ TOXIC MARKET - Score: 3.00
21/01/2025 01:14:57.202 | Info | [01:14:57] ⚠️ WARN: ⚠️ TOXIC MARKET - Score: 3.00
21/01/2025 01:15:00.204 | Info | [01:15:00] ⚠️ WARN: ⚠️ TOXIC MARKET - Score: 3.00
21/01/2025 01:15:00.807 | Info | [01:15:00] ⚠️ WARN: ⚠️ TOXIC MARKET - Score: 3.00
21/01/2025 01:15:06.103 | Info | [01:15:06] ⚠️ WARN: ⚠️ TOXIC MARKET - Score: 3.00
21/01/2025 01:15:46.004 | Info | [01:15:46] ⚠️ WARN: ⚠️ TOXIC MARKET - Score: 3.00
21/01/2025 01:15:49.007 | Info | [01:15:49] ⚠️ WARN: ⚠️ TOXIC MARKET - Score: 3.00
21/01/2025 01:15:49.403 | Info | [01:15:49] ⚠️ WARN: ⚠️ TOXIC MARKET - Score: 3.00
21/01/2025 01:15:49.705 | Info | [01:15:49] ⚠️ WARN: ⚠️ TOXIC MARKET - Score: 3.00
21/01/2025 01:16:04.403 | Info | [01:16:04] ⚠️ WARN: ⚠️ TOXIC MARKET - Score: 3.00
21/01/2025 01:16:05.102 | Info | [01:16:05] ⚠️ WARN: ⚠️ TOXIC MARKET - Score: 3.00
21/01/2025 01:16:13.203 | Info | [01:16:13] ⚠️ WARN: ⚠️ TOXIC MARKET - Score: 3.00
21/01/2025 01:16:13.504 | Info | [01:16:13] ⚠️ WARN: ⚠️ TOXIC MARKET - Score: 3.00
21/01/2025 01:16:13.805 | Info | [01:16:13] ⚠️ WARN: ⚠️ TOXIC MARKET - Score: 3.00
21/01/2025 01:16:15.404 | Info | [01:16:15] ⚠️ WARN: ⚠️ TOXIC MARKET - Score: 3.00
21/01/2025 01:16:15.706 | Info | [01:16:15] ⚠️ WARN: ⚠️ TOXIC MARKET - Score: 3.00
21/01/2025 01:16:16.102 | Info | [01:16:16] ⚠️ WARN: ⚠️ TOXIC MARKET - Score: 3.00
21/01/2025 01:16:28.013 | Info | [01:16:28] ⚠️ WARN: ⚠️ TOXIC MARKET - Score: 3.00
21/01/2025 01:16:31.002 | Info | [01:16:31] ⚠️ WARN: ⚠️ TOXIC MARKET - Score: 3.00
21/01/2025 01:16:38.305 | Info | [01:16:38] ⚠️ WARN: ⚠️ TOXIC MARKET - Score: 3.00
21/01/2025 01:16:43.505 | Info | [01:16:43] ⚠️ WARN: ⚠️ TOXIC MARKET - Score: 3.00
21/01/2025 01:16:56.202 | Info | [01:16:56] ⚠️ WARN: ⚠️ TOXIC MARKET - Score: 3.00
21/01/2025 01:16:57.202 | Info | [01:16:57] ⚠️ WARN: ⚠️ TOXIC MARKET - Score: 3.00
21/01/2025 01:17:06.607 | Info | [01:17:06] ⚠️ WARN: ⚠️ TOXIC MARKET - Score: 3.00
21/01/2025 01:17:07.302 | Info | [01:17:07] ⚠️ WARN: ⚠️ TOXIC MARKET - Score: 3.00
21/01/2025 01:17:08.204 | Info | [01:17:08] ⚠️ WARN: ⚠️ TOXIC MARKET - Score: 3.00
21/01/2025 01:18:31.703 | Info | [01:18:31] ⚠️ WARN: ⚠️ TOXIC MARKET - Score: 3.00
21/01/2025 01:18:40.205 | Info | [01:18:40] ⚠️ WARN: ⚠️ TOXIC MARKET - Score: 3.00
21/01/2025 01:18:40.602 | Info | [01:18:40] ⚠️ WARN: ⚠️ TOXIC MARKET - Score: 3.00
21/01/2025 01:18:40.903 | Info | [01:18:40] ⚠️ WARN: ⚠️ TOXIC MARKET - Score: 3.00
21/01/2025 01:18:41.204 | Info | [01:18:41] ⚠️ WARN: ⚠️ TOXIC MARKET - Score: 3.00
21/01/2025 01:18:42.404 | Info | [01:18:42] ⚠️ WARN: ⚠️ TOXIC MARKET - Score: 3.00
21/01/2025 01:18:45.603 | Info | [01:18:45] ⚠️ WARN: ⚠️ TOXIC MARKET - Score: 3.00
21/01/2025 01:18:51.402 | Info | [01:18:51] ⚠️ WARN: ⚠️ TOXIC MARKET - Score: 3.00
21/01/2025 01:18:53.000 | Info | [01:18:53] ⚠️ WARN: ⚠️ TOXIC MARKET - Score: 3.00
21/01/2025 01:19:01.000 | Info | [01:19:01] ⚠️ WARN: ⚠️ TOXIC MARKET - Score: 3.00
21/01/2025 01:19:34.305 | Info | [01:19:34] ⚠️ WARN: ⚠️ TOXIC MARKET - Score: 3.00
21/01/2025 01:19:38.902 | Info | [01:19:38] ⚠️ WARN: ⚠️ TOXIC MARKET - Score: 3.00
21/01/2025 01:19:40.202 | Info | [01:19:40] ⚠️ WARN: ⚠️ TOXIC MARKET - Score: 3.00
21/01/2025 01:19:42.101 | Info | [01:19:42] ⚠️ WARN: ⚠️ TOXIC MARKET - Score: 3.00
21/01/2025 01:19:42.404 | Info | [01:19:42] ⚠️ WARN: ⚠️ TOXIC MARKET - Score: 3.00
21/01/2025 01:19:42.801 | Info | [01:19:42] ⚠️ WARN: ⚠️ TOXIC MARKET - Score: 3.00
21/01/2025 01:19:43.701 | Info | [01:19:43] ⚠️ WARN: ⚠️ TOXIC MARKET - Score: 3.00
21/01/2025 01:19:44.002 | Info | [01:19:44] ⚠️ WARN: ⚠️ TOXIC MARKET - Score: 3.00
21/01/2025 01:19:44.302 | Info | [01:19:44] ⚠️ WARN: ⚠️ TOXIC MARKET - Score: 3.00
21/01/2025 01:19:44.605 | Info | [01:19:44] ⚠️ WARN: ⚠️ TOXIC MARKET - Score: 3.00
21/01/2025 01:19:45.302 | Info | [01:19:45] ⚠️ WARN: ⚠️ TOXIC MARKET - Score: 3.00
21/01/2025 01:19:45.905 | Info | [01:19:45] ⚠️ WARN: ⚠️ TOXIC MARKET - Score: 3.00
21/01/2025 01:19:47.302 | Info | [01:19:47] ⚠️ WARN: ⚠️ TOXIC MARKET - Score: 3.00
21/01/2025 01:19:48.000 | Info | [01:19:48] ⚠️ WARN: ⚠️ TOXIC MARKET - Score: 3.00
21/01/2025 01:19:50.603 | Info | [01:19:50] ⚠️ WARN: ⚠️ TOXIC MARKET - Score: 3.00
21/01/2025 01:19:50.903 | Info | [01:19:50] ⚠️ WARN: ⚠️ TOXIC MARKET - Score: 3.00
21/01/2025 01:19:51.204 | Info | [01:19:51] ⚠️ WARN: ⚠️ TOXIC MARKET - Score: 3.00
21/01/2025 01:19:51.602 | Info | [01:19:51] ⚠️ WARN: ⚠️ TOXIC MARKET - Score: 3.00
21/01/2025 01:19:52.204 | Info | [01:19:52] ⚠️ WARN: ⚠️ TOXIC MARKET - Score: 3.00
21/01/2025 01:19:52.603 | Info | [01:19:52] ⚠️ WARN: ⚠️ TOXIC MARKET - Score: 3.00
21/01/2025 01:19:52.904 | Info | [01:19:52] ⚠️ WARN: ⚠️ TOXIC MARKET - Score: 3.00
21/01/2025 01:19:54.202 | Info | [01:19:54] ⚠️ WARN: ⚠️ TOXIC MARKET - Score: 3.00
21/01/2025 01:19:54.516 | Info | [01:19:54] ⚠️ WARN: ⚠️ TOXIC MARKET - Score: 3.00
21/01/2025 01:19:55.208 | Info | [01:19:55] ⚠️ WARN: ⚠️ TOXIC MARKET - Score: 3.00
21/01/2025 01:19:57.904 | Info | [01:19:57] ⚠️ WARN: ⚠️ TOXIC MARKET - Score: 3.00
21/01/2025 01:20:00.604 | Info | [01:20:00] ⚠️ WARN: ⚠️ TOXIC MARKET - Score: 3.00
21/01/2025 01:20:02.602 | Info | [01:20:02] ⚠️ WARN: ⚠️ TOXIC MARKET - Score: 3.00
21/01/2025 01:20:02.905 | Info | [01:20:02] ⚠️ WARN: ⚠️ TOXIC MARKET - Score: 3.00
21/01/2025 01:20:03.609 | Info | [01:20:03] ⚠️ WARN: ⚠️ TOXIC MARKET - Score: 3.00
21/01/2025 01:20:17.004 | Info | [01:20:17] ⚠️ WARN: ⚠️ TOXIC MARKET - Score: 3.00
21/01/2025 01:20:17.703 | Info | [01:20:17] ⚠️ WARN: ⚠️ TOXIC MARKET - Score: 3.00
21/01/2025 01:20:18.006 | Info | [01:20:18] ⚠️ WARN: ⚠️ TOXIC MARKET - Score: 3.00
21/01/2025 01:20:18.401 | Info | [01:20:18] ⚠️ WARN: ⚠️ TOXIC MARKET - Score: 3.00
21/01/2025 01:20:18.701 | Info | [01:20:18] ⚠️ WARN: ⚠️ TOXIC MARKET - Score: 3.00
21/01/2025 01:20:26.603 | Info | [01:20:26] ⚠️ WARN: ⚠️ TOXIC MARKET - Score: 3.00
21/01/2025 01:20:27.604 | Info | [01:20:27] ⚠️ WARN: ⚠️ TOXIC MARKET - Score: 3.00
21/01/2025 01:20:35.005 | Info | [01:20:35] ⚠️ WARN: ⚠️ TOXIC MARKET - Score: 3.00
21/01/2025 01:20:35.305 | Info | [01:20:35] ⚠️ WARN: ⚠️ TOXIC MARKET - Score: 3.00
21/01/2025 01:20:35.703 | Info | [01:20:35] ⚠️ WARN: ⚠️ TOXIC MARKET - Score: 3.00
21/01/2025 01:20:38.000 | Info | [01:20:38] ⚠️ WARN: ⚠️ TOXIC MARKET - Score: 3.00
21/01/2025 01:20:38.604 | Info | [01:20:38] ⚠️ WARN: ⚠️ TOXIC MARKET - Score: 3.00
21/01/2025 01:20:39.000 | Info | [01:20:39] ⚠️ WARN: ⚠️ TOXIC MARKET - Score: 3.00
21/01/2025 01:20:42.501 | Info | [01:20:42] ⚠️ WARN: ⚠️ TOXIC MARKET - Score: 3.00
21/01/2025 01:20:42.804 | Info | [01:20:42] ⚠️ WARN: ⚠️ TOXIC MARKET - Score: 3.00
21/01/2025 01:20:43.202 | Info | [01:20:43] ⚠️ WARN: ⚠️ TOXIC MARKET - Score: 3.00
21/01/2025 01:20:43.601 | Info | [01:20:43] ⚠️ WARN: ⚠️ TOXIC MARKET - Score: 3.00
21/01/2025 01:20:53.902 | Info | [01:20:53] ⚠️ WARN: ⚠️ TOXIC MARKET - Score: 3.00
21/01/2025 01:20:54.202 | Info | [01:20:54] ⚠️ WARN: ⚠️ TOXIC MARKET - Score: 3.00
21/01/2025 01:20:54.503 | Info | [01:20:54] ⚠️ WARN: ⚠️ TOXIC MARKET - Score: 3.00
21/01/2025 01:20:55.601 | Info | [01:20:55] ⚠️ WARN: ⚠️ TOXIC MARKET - Score: 3.00
21/01/2025 01:20:56.803 | Info | [01:20:56] ⚠️ WARN: ⚠️ TOXIC MARKET - Score: 3.00
21/01/2025 01:20:57.403 | Info | [01:20:57] ⚠️ WARN: ⚠️ TOXIC MARKET - Score: 3.00
21/01/2025 01:20:57.704 | Info | [01:20:57] ⚠️ WARN: ⚠️ TOXIC MARKET - Score: 3.00
21/01/2025 01:20:58.702 | Info | [01:20:58] ⚠️ WARN: ⚠️ TOXIC MARKET - Score: 3.00
21/01/2025 01:21:00.302 | Info | [01:21:00] ⚠️ WARN: ⚠️ TOXIC MARKET - Score: 3.00
21/01/2025 01:21:00.602 | Info | [01:21:00] ⚠️ WARN: ⚠️ TOXIC MARKET - Score: 3.00
21/01/2025 01:21:01.806 | Info | [01:21:01] ⚠️ WARN: ⚠️ TOXIC MARKET - Score: 3.00
21/01/2025 01:21:02.503 | Info | [01:21:02] ⚠️ WARN: ⚠️ TOXIC MARKET - Score: 3.00
21/01/2025 01:21:03.203 | Info | [01:21:03] ⚠️ WARN: ⚠️ TOXIC MARKET - Score: 3.00
21/01/2025 01:21:03.203 | Info | [01:21:03] 🔍 DEBUG: Trend: State=-1, Hurst=0.681, Slope=-0.00004
21/01/2025 01:21:03.203 | Info | [01:21:03] 🔍 DEBUG: FD: 1.387, Status: STABLE
21/01/2025 01:21:03.505 | Info | [01:21:03] ⚠️ WARN: ⚠️ TOXIC MARKET - Score: 3.00
21/01/2025 01:21:04.505 | Info | [01:21:04] ⚠️ WARN: ⚠️ TOXIC MARKET - Score: 3.00
21/01/2025 01:21:04.901 | Info | [01:21:04] ⚠️ WARN: ⚠️ TOXIC MARKET - Score: 3.00
21/01/2025 01:21:05.201 | Info | [01:21:05] ⚠️ WARN: ⚠️ TOXIC MARKET - Score: 3.00
21/01/2025 01:21:05.502 | Info | [01:21:05] ⚠️ WARN: ⚠️ TOXIC MARKET - Score: 3.00
21/01/2025 01:21:06.502 | Info | [01:21:06] ⚠️ WARN: ⚠️ TOXIC MARKET - Score: 3.00
21/01/2025 01:21:07.102 | Info | [01:21:07] ⚠️ WARN: ⚠️ TOXIC MARKET - Score: 3.00
21/01/2025 01:21:08.306 | Info | [01:21:08] ⚠️ WARN: ⚠️ TOXIC MARKET - Score: 3.00
21/01/2025 01:21:09.004 | Info | [01:21:09] ⚠️ WARN: ⚠️ TOXIC MARKET - Score: 3.00
21/01/2025 01:21:09.704 | Info | [01:21:09] ⚠️ WARN: ⚠️ TOXIC MARKET - Score: 3.00
21/01/2025 01:21:10.004 | Info | [01:21:10] ⚠️ WARN: ⚠️ TOXIC MARKET - Score: 3.00
21/01/2025 01:21:10.608 | Info | [01:21:10] ⚠️ WARN: ⚠️ TOXIC MARKET - Score: 3.00
21/01/2025 01:21:11.301 | Info | [01:21:11] ⚠️ WARN: ⚠️ TOXIC MARKET - Score: 3.00
21/01/2025 01:21:12.202 | Info | [01:21:12] ⚠️ WARN: ⚠️ TOXIC MARKET - Score: 3.00
21/01/2025 01:21:12.506 | Info | [01:21:12] ⚠️ WARN: ⚠️ TOXIC MARKET - Score: 3.00
21/01/2025 01:21:12.902 | Info | [01:21:12] ⚠️ WARN: ⚠️ TOXIC MARKET - Score: 3.00
21/01/2025 01:21:13.506 | Info | [01:21:13] ⚠️ WARN: ⚠️ TOXIC MARKET - Score: 3.00
21/01/2025 01:21:13.901 | Info | [01:21:13] ⚠️ WARN: ⚠️ TOXIC MARKET - Score: 3.00
21/01/2025 01:21:14.201 | Info | [01:21:14] ⚠️ WARN: ⚠️ TOXIC MARKET - Score: 3.00
21/01/2025 01:21:14.502 | Info | [01:21:14] ⚠️ WARN: ⚠️ TOXIC MARKET - Score: 3.00
21/01/2025 01:21:14.803 | Info | [01:21:14] ⚠️ WARN: ⚠️ TOXIC MARKET - Score: 3.00
21/01/2025 01:21:15.205 | Info | [01:21:15] ⚠️ WARN: ⚠️ TOXIC MARKET - Score: 3.00
21/01/2025 01:21:15.505 | Info | [01:21:15] ⚠️ WARN: ⚠️ TOXIC MARKET - Score: 3.00
21/01/2025 01:21:15.901 | Info | [01:21:15] ⚠️ WARN: ⚠️ TOXIC MARKET - Score: 3.00
21/01/2025 01:21:17.104 | Info | [01:21:17] ⚠️ WARN: ⚠️ TOXIC MARKET - Score: 3.00
21/01/2025 01:21:18.101 | Info | [01:21:18] ⚠️ WARN: ⚠️ TOXIC MARKET - Score: 3.00
21/01/2025 01:21:19.403 | Info | [01:21:19] ⚠️ WARN: ⚠️ TOXIC MARKET - Score: 3.00
21/01/2025 01:21:20.006 | Info | [01:21:20] ⚠️ WARN: ⚠️ TOXIC MARKET - Score: 3.00
21/01/2025 01:21:20.403 | Info | [01:21:20] ⚠️ WARN: ⚠️ TOXIC MARKET - Score: 3.00
21/01/2025 01:21:20.706 | Info | [01:21:20] ⚠️ WARN: ⚠️ TOXIC MARKET - Score: 3.00
21/01/2025 01:21:21.007 | Info | [01:21:21] ⚠️ WARN: ⚠️ TOXIC MARKET - Score: 3.00
21/01/2025 01:21:21.403 | Info | [01:21:21] ⚠️ WARN: ⚠️ TOXIC MARKET - Score: 3.00
21/01/2025 01:21:21.704 | Info | [01:21:21] ⚠️ WARN: ⚠️ TOXIC MARKET - Score: 3.00
21/01/2025 01:21:22.008 | Info | [01:21:22] ⚠️ WARN: ⚠️ TOXIC MARKET - Score: 3.00
21/01/2025 01:21:22.703 | Info | [01:21:22] ⚠️ WARN: ⚠️ TOXIC MARKET - Score: 3.00
21/01/2025 01:21:23.003 | Info | [01:21:23] ⚠️ WARN: ⚠️ TOXIC MARKET - Score: 3.00
21/01/2025 01:21:23.304 | Info | [01:21:23] ⚠️ WARN: ⚠️ TOXIC MARKET - Score: 3.00
21/01/2025 01:21:24.001 | Info | [01:21:24] ⚠️ WARN: ⚠️ TOXIC MARKET - Score: 3.00
21/01/2025 01:21:24.303 | Info | [01:21:24] ⚠️ WARN: ⚠️ TOXIC MARKET - Score: 3.00
21/01/2025 01:21:24.604 | Info | [01:21:24] ⚠️ WARN: ⚠️ TOXIC MARKET - Score: 3.00
21/01/2025 01:21:24.908 | Info | [01:21:24] ⚠️ WARN: ⚠️ TOXIC MARKET - Score: 3.00
21/01/2025 01:21:25.305 | Info | [01:21:25] ⚠️ WARN: ⚠️ TOXIC MARKET - Score: 3.00
21/01/2025 01:21:25.611 | Info | [01:21:25] ⚠️ WARN: ⚠️ TOXIC MARKET - Score: 3.00
21/01/2025 01:21:26.000 | Info | [01:21:26] ⚠️ WARN: ⚠️ TOXIC MARKET - Score: 3.00
21/01/2025 01:21:31.307 | Info | [01:21:31] ⚠️ WARN: ⚠️ TOXIC MARKET - Score: 3.00
21/01/2025 01:21:32.003 | Info | [01:21:32] ⚠️ WARN: ⚠️ TOXIC MARKET - Score: 3.00
21/01/2025 01:21:33.000 | Info | [01:21:33] ⚠️ WARN: ⚠️ TOXIC MARKET - Score: 3.00
21/01/2025 01:21:34.301 | Info | [01:21:34] ⚠️ WARN: ⚠️ TOXIC MARKET - Score: 3.00
21/01/2025 01:23:04.101 | Info | [01:23:04] ⚠️ WARN: ⚠️ TOXIC MARKET - Score: 3.00
21/01/2025 01:23:04.401 | Info | [01:23:04] ⚠️ WARN: ⚠️ TOXIC MARKET - Score: 3.00
21/01/2025 01:23:04.702 | Info | [01:23:04] ⚠️ WARN: ⚠️ TOXIC MARKET - Score: 3.00
21/01/2025 01:23:05.608 | Info | [01:23:05] ⚠️ WARN: ⚠️ TOXIC MARKET - Score: 3.00
21/01/2025 01:23:06.000 | Info | [01:23:06] ⚠️ WARN: ⚠️ TOXIC MARKET - Score: 3.00
21/01/2025 01:23:06.303 | Info | [01:23:06] ⚠️ WARN: ⚠️ TOXIC MARKET - Score: 3.00
21/01/2025 01:23:06.701 | Info | [01:23:06] ⚠️ WARN: ⚠️ TOXIC MARKET - Score: 3.00
21/01/2025 01:23:07.001 | Info | [01:23:07] ⚠️ WARN: ⚠️ TOXIC MARKET - Score: 3.00
21/01/2025 01:23:07.302 | Info | [01:23:07] ⚠️ WARN: ⚠️ TOXIC MARKET - Score: 3.00
21/01/2025 01:23:07.702 | Info | [01:23:07] ⚠️ WARN: ⚠️ TOXIC MARKET - Score: 3.00
21/01/2025 01:23:08.002 | Info | [01:23:08] ⚠️ WARN: ⚠️ TOXIC MARKET - Score: 3.00
21/01/2025 01:23:08.904 | Info | [01:23:08] ⚠️ WARN: ⚠️ TOXIC MARKET - Score: 3.00
21/01/2025 01:23:09.601 | Info | [01:23:09] ⚠️ WARN: ⚠️ TOXIC MARKET - Score: 3.00
21/01/2025 01:23:09.902 | Info | [01:23:09] ⚠️ WARN: ⚠️ TOXIC MARKET - Score: 3.00
21/01/2025 01:23:10.203 | Info | [01:23:10] ⚠️ WARN: ⚠️ TOXIC MARKET - Score: 3.00
21/01/2025 01:23:10.506 | Info | [01:23:10] ⚠️ WARN: ⚠️ TOXIC MARKET - Score: 3.00
21/01/2025 01:23:11.201 | Info | [01:23:11] ⚠️ WARN: ⚠️ TOXIC MARKET - Score: 3.00
21/01/2025 01:23:11.501 | Info | [01:23:11] ⚠️ WARN: ⚠️ TOXIC MARKET - Score: 3.00
21/01/2025 01:23:11.801 | Info | [01:23:11] ⚠️ WARN: ⚠️ TOXIC MARKET - Score: 3.00
21/01/2025 01:23:12.101 | Info | [01:23:12] ⚠️ WARN: ⚠️ TOXIC MARKET - Score: 3.00
21/01/2025 01:23:12.402 | Info | [01:23:12] ⚠️ WARN: ⚠️ TOXIC MARKET - Score: 3.00
21/01/2025 01:23:12.805 | Info | [01:23:12] ⚠️ WARN: ⚠️ TOXIC MARKET - Score: 3.00
21/01/2025 01:23:13.202 | Info | [01:23:13] ⚠️ WARN: ⚠️ TOXIC MARKET - Score: 3.00
21/01/2025 01:23:13.503 | Info | [01:23:13] ⚠️ WARN: ⚠️ TOXIC MARKET - Score: 3.00
21/01/2025 01:25:29.402 | Info | [01:25:29] 🔍 DEBUG: Trend: State=-1, Hurst=0.715, Slope=-0.00004
21/01/2025 01:25:29.402 | Info | [01:25:29] 🔍 DEBUG: FD: 1.373, Status: STABLE
21/01/2025 01:26:03.104 | Info | [01:26:03] 🔍 DEBUG: Trend: State=-1, Hurst=0.775, Slope=-0.00004
21/01/2025 01:26:03.104 | Info | [01:26:03] 🔍 DEBUG: FD: 1.367, Status: STABLE
21/01/2025 01:27:28.103 | Info | [01:27:28] 🔍 DEBUG: Trend: State=-1, Hurst=0.764, Slope=-0.00004
21/01/2025 01:27:28.103 | Info | [01:27:28] 🔍 DEBUG: FD: 1.363, Status: STABLE
21/01/2025 01:27:35.105 | Info | [01:27:35] 🔍 DEBUG: Trend: State=-1, Hurst=0.736, Slope=-0.00004
21/01/2025 01:27:35.105 | Info | [01:27:35] 🔍 DEBUG: FD: 1.372, Status: STABLE
21/01/2025 01:28:14.605 | Info | [01:28:14] 🔍 DEBUG: Trend: State=-1, Hurst=0.716, Slope=-0.00004
21/01/2025 01:28:14.605 | Info | [01:28:14] 🔍 DEBUG: FD: 1.377, Status: STABLE
21/01/2025 01:30:39.909 | Info | [01:30:39] 🔍 DEBUG: Trend: State=-1, Hurst=0.736, Slope=-0.00004
21/01/2025 01:30:39.909 | Info | [01:30:39] 🔍 DEBUG: FD: 1.405, Status: STABLE
21/01/2025 01:32:31.704 | Info | [01:32:31] ⚠️ WARN: ⚠️ TOXIC MARKET - Score: 3.00
21/01/2025 01:32:32.404 | Info | [01:32:32] ⚠️ WARN: ⚠️ TOXIC MARKET - Score: 3.00
21/01/2025 01:32:33.101 | Info | [01:32:33] ⚠️ WARN: ⚠️ TOXIC MARKET - Score: 3.00
21/01/2025 01:32:34.701 | Info | [01:32:34] ⚠️ WARN: ⚠️ TOXIC MARKET - Score: 3.00
21/01/2025 01:32:36.303 | Info | [01:32:36] ⚠️ WARN: ⚠️ TOXIC MARKET - Score: 3.00
21/01/2025 01:32:36.702 | Info | [01:32:36] ⚠️ WARN: ⚠️ TOXIC MARKET - Score: 3.00
21/01/2025 01:32:40.103 | Info | [01:32:40] ⚠️ WARN: ⚠️ TOXIC MARKET - Score: 3.00
21/01/2025 01:32:40.405 | Info | [01:32:40] ⚠️ WARN: ⚠️ TOXIC MARKET - Score: 3.00
21/01/2025 01:32:42.102 | Info | [01:32:42] ⚠️ WARN: ⚠️ TOXIC MARKET - Score: 3.00
21/01/2025 01:32:42.402 | Info | [01:32:42] ⚠️ WARN: ⚠️ TOXIC MARKET - Score: 3.00
21/01/2025 01:32:43.101 | Info | [01:32:43] ⚠️ WARN: ⚠️ TOXIC MARKET - Score: 3.00
21/01/2025 01:32:46.702 | Info | [01:32:46] ⚠️ WARN: ⚠️ TOXIC MARKET - Score: 3.00
21/01/2025 01:32:47.602 | Info | [01:32:47] ⚠️ WARN: ⚠️ TOXIC MARKET - Score: 3.00
21/01/2025 01:32:49.505 | Info | [01:32:49] ⚠️ WARN: ⚠️ TOXIC MARKET - Score: 3.00
21/01/2025 01:32:49.901 | Info | [01:32:49] ⚠️ WARN: ⚠️ TOXIC MARKET - Score: 3.00
21/01/2025 01:32:50.203 | Info | [01:32:50] ⚠️ WARN: ⚠️ TOXIC MARKET - Score: 3.00
21/01/2025 01:32:50.503 | Info | [01:32:50] ⚠️ WARN: ⚠️ TOXIC MARKET - Score: 3.00
21/01/2025 01:32:51.204 | Info | [01:32:51] ⚠️ WARN: ⚠️ TOXIC MARKET - Score: 3.00
21/01/2025 01:32:51.600 | Info | [01:32:51] ⚠️ WARN: ⚠️ TOXIC MARKET - Score: 3.00
21/01/2025 01:32:52.200 | Info | [01:32:52] ⚠️ WARN: ⚠️ TOXIC MARKET - Score: 3.00
21/01/2025 01:32:53.102 | Info | [01:32:53] ⚠️ WARN: ⚠️ TOXIC MARKET - Score: 3.00
21/01/2025 01:32:53.402 | Info | [01:32:53] ⚠️ WARN: ⚠️ TOXIC MARKET - Score: 3.00
21/01/2025 01:32:53.705 | Info | [01:32:53] ⚠️ WARN: ⚠️ TOXIC MARKET - Score: 3.00
21/01/2025 01:32:54.101 | Info | [01:32:54] ⚠️ WARN: ⚠️ TOXIC MARKET - Score: 3.00
21/01/2025 01:32:54.706 | Info | [01:32:54] ⚠️ WARN: ⚠️ TOXIC MARKET - Score: 3.00
21/01/2025 01:32:55.101 | Info | [01:32:55] ⚠️ WARN: ⚠️ TOXIC MARKET - Score: 3.00
21/01/2025 01:32:55.703 | Info | [01:32:55] ⚠️ WARN: ⚠️ TOXIC MARKET - Score: 3.00
21/01/2025 01:32:56.306 | Info | [01:32:56] ⚠️ WARN: ⚠️ TOXIC MARKET - Score: 3.00
21/01/2025 01:32:56.606 | Info | [01:32:56] ⚠️ WARN: ⚠️ TOXIC MARKET - Score: 3.00
21/01/2025 01:32:57.302 | Info | [01:32:57] ⚠️ WARN: ⚠️ TOXIC MARKET - Score: 3.00
21/01/2025 01:32:59.102 | Info | [01:32:59] ⚠️ WARN: ⚠️ TOXIC MARKET - Score: 3.00
21/01/2025 01:33:00.306 | Info | [01:33:00] ⚠️ WARN: ⚠️ TOXIC MARKET - Score: 3.00
21/01/2025 01:33:01.002 | Info | [01:33:01] ⚠️ WARN: ⚠️ TOXIC MARKET - Score: 3.00
21/01/2025 01:33:03.302 | Info | [01:33:03] ⚠️ WARN: ⚠️ TOXIC MARKET - Score: 3.00
21/01/2025 01:33:08.804 | Info | [01:33:08] ⚠️ WARN: ⚠️ TOXIC MARKET - Score: 3.00
21/01/2025 01:33:09.201 | Info | [01:33:09] ⚠️ WARN: ⚠️ TOXIC MARKET - Score: 3.00
21/01/2025 01:33:10.103 | Info | [01:33:10] ⚠️ WARN: ⚠️ TOXIC MARKET - Score: 3.00
21/01/2025 01:33:10.803 | Info | [01:33:10] ⚠️ WARN: ⚠️ TOXIC MARKET - Score: 3.00
21/01/2025 01:33:11.502 | Info | [01:33:11] ⚠️ WARN: ⚠️ TOXIC MARKET - Score: 3.00
21/01/2025 01:33:12.402 | Info | [01:33:12] ⚠️ WARN: ⚠️ TOXIC MARKET - Score: 3.00
21/01/2025 01:33:19.402 | Info | [01:33:19] ⚠️ WARN: ⚠️ TOXIC MARKET - Score: 3.00
21/01/2025 01:33:20.802 | Info | [01:33:20] ⚠️ WARN: ⚠️ TOXIC MARKET - Score: 3.00
21/01/2025 01:33:21.102 | Info | [01:33:21] ⚠️ WARN: ⚠️ TOXIC MARKET - Score: 3.00
21/01/2025 01:33:22.002 | Info | [01:33:22] ⚠️ WARN: ⚠️ TOXIC MARKET - Score: 3.00
21/01/2025 01:33:22.306 | Info | [01:33:22] ⚠️ WARN: ⚠️ TOXIC MARKET - Score: 3.00
21/01/2025 01:33:22.702 | Info | [01:33:22] ⚠️ WARN: ⚠️ TOXIC MARKET - Score: 3.00
21/01/2025 01:33:23.702 | Info | [01:33:23] ⚠️ WARN: ⚠️ TOXIC MARKET - Score: 3.00
21/01/2025 01:33:24.007 | Info | [01:33:24] ⚠️ WARN: ⚠️ TOXIC MARKET - Score: 3.00
21/01/2025 01:33:24.403 | Info | [01:33:24] ⚠️ WARN: ⚠️ TOXIC MARKET - Score: 3.00
21/01/2025 01:33:25.012 | Info | [01:33:25] ⚠️ WARN: ⚠️ TOXIC MARKET - Score: 3.00
21/01/2025 01:33:25.704 | Info | [01:33:25] ⚠️ WARN: ⚠️ TOXIC MARKET - Score: 3.00
21/01/2025 01:33:26.106 | Info | [01:33:26] ⚠️ WARN: ⚠️ TOXIC MARKET - Score: 3.00
21/01/2025 01:33:28.302 | Info | [01:33:28] ⚠️ WARN: ⚠️ TOXIC MARKET - Score: 3.00
21/01/2025 01:33:30.604 | Info | [01:33:30] ⚠️ WARN: ⚠️ TOXIC MARKET - Score: 3.00
21/01/2025 01:33:32.000 | Info | [01:33:32] ⚠️ WARN: ⚠️ TOXIC MARKET - Score: 3.00
21/01/2025 01:33:34.301 | Info | [01:33:34] ⚠️ WARN: ⚠️ TOXIC MARKET - Score: 3.00
21/01/2025 01:33:34.602 | Info | [01:33:34] ⚠️ WARN: ⚠️ TOXIC MARKET - Score: 3.00
21/01/2025 01:33:43.000 | Info | [01:33:43] ⚠️ WARN: ⚠️ TOXIC MARKET - Score: 3.00
21/01/2025 01:33:43.302 | Info | [01:33:43] ⚠️ WARN: ⚠️ TOXIC MARKET - Score: 3.00
21/01/2025 01:33:44.905 | Info | [01:33:44] ⚠️ WARN: ⚠️ TOXIC MARKET - Score: 3.00
21/01/2025 01:33:47.603 | Info | [01:33:47] ⚠️ WARN: ⚠️ TOXIC MARKET - Score: 3.00
21/01/2025 01:33:50.314 | Info | [01:33:50] ⚠️ WARN: ⚠️ TOXIC MARKET - Score: 3.00
21/01/2025 01:33:50.703 | Info | [01:33:50] ⚠️ WARN: ⚠️ TOXIC MARKET - Score: 3.00
21/01/2025 01:33:59.803 | Info | [01:33:59] ⚠️ WARN: ⚠️ TOXIC MARKET - Score: 3.00
21/01/2025 01:34:01.203 | Info | [01:34:01] ⚠️ WARN: ⚠️ TOXIC MARKET - Score: 3.00
21/01/2025 01:34:02.803 | Info | [01:34:02] ⚠️ WARN: ⚠️ TOXIC MARKET - Score: 3.00
21/01/2025 01:34:07.302 | Info | [01:34:07] ⚠️ WARN: ⚠️ TOXIC MARKET - Score: 3.00
21/01/2025 01:34:18.602 | Info | [01:34:18] ⚠️ WARN: ⚠️ TOXIC MARKET - Score: 3.00
21/01/2025 01:34:18.903 | Info | [01:34:18] ⚠️ WARN: ⚠️ TOXIC MARKET - Score: 3.00
21/01/2025 01:34:25.605 | Info | [01:34:25] ⚠️ WARN: ⚠️ TOXIC MARKET - Score: 3.00
21/01/2025 01:34:26.302 | Info | [01:34:26] ⚠️ WARN: ⚠️ TOXIC MARKET - Score: 3.00
21/01/2025 01:34:26.603 | Info | [01:34:26] ⚠️ WARN: ⚠️ TOXIC MARKET - Score: 3.00
21/01/2025 01:35:37.807 | Info | [01:35:37] ⚠️ WARN: ⚠️ TOXIC MARKET - Score: 3.00
21/01/2025 01:35:54.204 | Info | [01:35:54] ⚠️ WARN: ⚠️ TOXIC MARKET - Score: 3.00
21/01/2025 01:35:54.603 | Info | [01:35:54] ⚠️ WARN: ⚠️ TOXIC MARKET - Score: 3.00
21/01/2025 01:35:55.601 | Info | [01:35:55] ⚠️ WARN: ⚠️ TOXIC MARKET - Score: 3.00
21/01/2025 01:35:56.204 | Info | [01:35:56] ⚠️ WARN: ⚠️ TOXIC MARKET - Score: 3.00
21/01/2025 01:35:56.903 | Info | [01:35:56] ⚠️ WARN: ⚠️ TOXIC MARKET - Score: 3.00
21/01/2025 01:35:57.904 | Info | [01:35:57] ⚠️ WARN: ⚠️ TOXIC MARKET - Score: 3.00
21/01/2025 01:35:58.601 | Info | [01:35:58] ⚠️ WARN: ⚠️ TOXIC MARKET - Score: 3.00
21/01/2025 01:35:58.902 | Info | [01:35:58] ⚠️ WARN: ⚠️ TOXIC MARKET - Score: 3.00
21/01/2025 01:35:59.202 | Info | [01:35:59] ⚠️ WARN: ⚠️ TOXIC MARKET - Score: 3.00
21/01/2025 01:36:01.102 | Info | [01:36:01] ⚠️ WARN: ⚠️ TOXIC MARKET - Score: 3.00
21/01/2025 01:36:03.101 | Info | [01:36:03] ⚠️ WARN: ⚠️ TOXIC MARKET - Score: 3.00
21/01/2025 01:36:04.502 | Info | [01:36:04] ⚠️ WARN: ⚠️ TOXIC MARKET - Score: 3.00
21/01/2025 01:36:04.802 | Info | [01:36:04] ⚠️ WARN: ⚠️ TOXIC MARKET - Score: 3.00
21/01/2025 01:36:05.906 | Info | [01:36:05] ⚠️ WARN: ⚠️ TOXIC MARKET - Score: 3.00
21/01/2025 01:36:06.902 | Info | [01:36:06] ⚠️ WARN: ⚠️ TOXIC MARKET - Score: 3.00
21/01/2025 01:36:07.505 | Info | [01:36:07] ⚠️ WARN: ⚠️ TOXIC MARKET - Score: 3.00
21/01/2025 01:36:08.805 | Info | [01:36:08] ⚠️ WARN: ⚠️ TOXIC MARKET - Score: 3.00
21/01/2025 01:36:09.503 | Info | [01:36:09] ⚠️ WARN: ⚠️ TOXIC MARKET - Score: 3.00
21/01/2025 01:36:11.501 | Info | [01:36:11] ⚠️ WARN: ⚠️ TOXIC MARKET - Score: 3.00
21/01/2025 01:36:42.203 | Info | [01:36:42] 🔍 DEBUG: Trend: State=-1, Hurst=0.715, Slope=-0.00004
21/01/2025 01:36:42.203 | Info | [01:36:42] 🔍 DEBUG: FD: 1.424, Status: STABLE
21/01/2025 01:41:10.303 | Info | [01:41:10] ⚠️ WARN: ⚠️ TOXIC MARKET - Score: 3.00
21/01/2025 01:41:37.202 | Info | [01:41:37] ⚠️ WARN: ⚠️ TOXIC MARKET - Score: 3.00
21/01/2025 01:41:52.202 | Info | [01:41:52] ⚠️ WARN: ⚠️ TOXIC MARKET - Score: 3.00
21/01/2025 01:41:52.505 | Info | [01:41:52] ⚠️ WARN: ⚠️ TOXIC MARKET - Score: 3.00
21/01/2025 01:41:53.204 | Info | [01:41:53] ⚠️ WARN: ⚠️ TOXIC MARKET - Score: 3.00
21/01/2025 01:41:53.602 | Info | [01:41:53] ⚠️ WARN: ⚠️ TOXIC MARKET - Score: 3.00
21/01/2025 01:41:54.205 | Info | [01:41:54] ⚠️ WARN: ⚠️ TOXIC MARKET - Score: 3.00
21/01/2025 01:43:15.502 | Info | [01:43:15] ⚠️ WARN: ⚠️ TOXIC MARKET - Score: 3.00
21/01/2025 01:44:21.303 | Info | [01:44:21] 🔍 DEBUG: Trend: State=-1, Hurst=0.721, Slope=-0.00004
21/01/2025 01:44:21.303 | Info | [01:44:21] 🔍 DEBUG: FD: 1.428, Status: STABLE
21/01/2025 01:48:40.404 | Info | [01:48:40] ⚠️ WARN: ⚠️ TOXIC MARKET - Score: 3.00
21/01/2025 01:48:40.706 | Info | [01:48:40] ⚠️ WARN: ⚠️ TOXIC MARKET - Score: 3.00
21/01/2025 01:48:41.101 | Info | [01:48:41] ⚠️ WARN: ⚠️ TOXIC MARKET - Score: 3.00
21/01/2025 01:48:41.402 | Info | [01:48:41] ⚠️ WARN: ⚠️ TOXIC MARKET - Score: 3.00
21/01/2025 01:48:41.702 | Info | [01:48:41] ⚠️ WARN: ⚠️ TOXIC MARKET - Score: 3.00
21/01/2025 01:48:43.302 | Info | [01:48:43] ⚠️ WARN: ⚠️ TOXIC MARKET - Score: 3.00
21/01/2025 01:48:43.602 | Info | [01:48:43] ⚠️ WARN: ⚠️ TOXIC MARKET - Score: 3.00
21/01/2025 01:48:43.902 | Info | [01:48:43] ⚠️ WARN: ⚠️ TOXIC MARKET - Score: 3.00
21/01/2025 01:48:46.803 | Info | [01:48:46] ⚠️ WARN: ⚠️ TOXIC MARKET - Score: 3.00
21/01/2025 01:48:47.105 | Info | [01:48:47] ⚠️ WARN: ⚠️ TOXIC MARKET - Score: 3.00
21/01/2025 01:48:48.102 | Info | [01:48:48] ⚠️ WARN: ⚠️ TOXIC MARKET - Score: 3.00
21/01/2025 01:48:48.404 | Info | [01:48:48] ⚠️ WARN: ⚠️ TOXIC MARKET - Score: 3.00
21/01/2025 01:48:48.803 | Info | [01:48:48] ⚠️ WARN: ⚠️ TOXIC MARKET - Score: 3.00
21/01/2025 01:48:50.603 | Info | [01:48:50] ⚠️ WARN: ⚠️ TOXIC MARKET - Score: 3.00
21/01/2025 01:48:50.903 | Info | [01:48:50] ⚠️ WARN: ⚠️ TOXIC MARKET - Score: 3.00
21/01/2025 01:48:51.204 | Info | [01:48:51] ⚠️ WARN: ⚠️ TOXIC MARKET - Score: 3.00
21/01/2025 01:48:52.301 | Info | [01:48:52] ⚠️ WARN: ⚠️ TOXIC MARKET - Score: 3.00
21/01/2025 01:48:52.603 | Info | [01:48:52] ⚠️ WARN: ⚠️ TOXIC MARKET - Score: 3.00
21/01/2025 01:55:44.904 | Info | [01:55:44] ⚠️ WARN: ⚠️ TOXIC MARKET - Score: 3.00
21/01/2025 01:55:46.603 | Info | [01:55:46] 🔍 DEBUG: Trend: State=-1, Hurst=0.697, Slope=-0.00004
21/01/2025 01:55:46.603 | Info | [01:55:46] 🔍 DEBUG: FD: 1.434, Status: STABLE
21/01/2025 02:02:26.208 | Info | [02:02:26] ⚠️ WARN: ⚠️ TOXIC MARKET - Score: 3.00
21/01/2025 02:03:43.503 | Info | [02:03:43] 🔍 DEBUG: Trend: State=-1, Hurst=0.706, Slope=-0.00004
21/01/2025 02:03:43.503 | Info | [02:03:43] 🔍 DEBUG: FD: 1.452, Status: STABLE
21/01/2025 02:08:18.302 | Info | [02:08:18] ⚠️ WARN: ⚠️ TOXIC MARKET - Score: 3.00
21/01/2025 02:09:08.203 | Info | [02:09:08] ⚠️ WARN: ⚠️ TOXIC MARKET - Score: 3.00
21/01/2025 02:09:08.504 | Info | [02:09:08] ⚠️ WARN: ⚠️ TOXIC MARKET - Score: 3.00
21/01/2025 02:09:11.404 | Info | [02:09:11] ⚠️ WARN: ⚠️ TOXIC MARKET - Score: 3.00
21/01/2025 02:09:14.802 | Info | [02:09:14] ⚠️ WARN: ⚠️ TOXIC MARKET - Score: 3.00
21/01/2025 02:09:15.102 | Info | [02:09:15] ⚠️ WARN: ⚠️ TOXIC MARKET - Score: 3.00
21/01/2025 02:09:16.205 | Info | [02:09:16] ⚠️ WARN: ⚠️ TOXIC MARKET - Score: 3.00
21/01/2025 02:09:16.602 | Info | [02:09:16] ⚠️ WARN: ⚠️ TOXIC MARKET - Score: 3.00
21/01/2025 02:09:17.903 | Info | [02:09:17] ⚠️ WARN: ⚠️ TOXIC MARKET - Score: 3.00
21/01/2025 02:09:18.302 | Info | [02:09:18] ⚠️ WARN: ⚠️ TOXIC MARKET - Score: 3.00
21/01/2025 02:09:18.602 | Info | [02:09:18] ⚠️ WARN: ⚠️ TOXIC MARKET - Score: 3.00
21/01/2025 02:09:23.805 | Info | [02:09:23] ⚠️ WARN: ⚠️ TOXIC MARKET - Score: 3.00
21/01/2025 02:09:24.503 | Info | [02:09:24] ⚠️ WARN: ⚠️ TOXIC MARKET - Score: 3.00
21/01/2025 02:09:25.505 | Info | [02:09:25] ⚠️ WARN: ⚠️ TOXIC MARKET - Score: 3.00
21/01/2025 02:09:25.901 | Info | [02:09:25] ⚠️ WARN: ⚠️ TOXIC MARKET - Score: 3.00
21/01/2025 02:09:26.201 | Info | [02:09:26] ⚠️ WARN: ⚠️ TOXIC MARKET - Score: 3.00
21/01/2025 02:09:27.704 | Info | [02:09:27] ⚠️ WARN: ⚠️ TOXIC MARKET - Score: 3.00
21/01/2025 02:09:28.404 | Info | [02:09:28] ⚠️ WARN: ⚠️ TOXIC MARKET - Score: 3.00
21/01/2025 02:09:32.305 | Info | [02:09:32] ⚠️ WARN: ⚠️ TOXIC MARKET - Score: 3.00
21/01/2025 02:10:54.404 | Info | [02:10:54] ⚠️ WARN: ⚠️ TOXIC MARKET - Score: 3.00
21/01/2025 02:11:16.703 | Info | [02:11:16] ⚠️ WARN: ⚠️ TOXIC MARKET - Score: 3.00
21/01/2025 02:12:41.602 | Info | [02:12:41] ⚠️ WARN: ⚠️ TOXIC MARKET - Score: 3.00
21/01/2025 02:12:42.202 | Info | [02:12:42] ⚠️ WARN: ⚠️ TOXIC MARKET - Score: 3.00
21/01/2025 02:13:29.301 | Info | [02:13:29] ⚠️ WARN: ⚠️ TOXIC MARKET - Score: 3.00
21/01/2025 02:15:44.203 | Info | [02:15:44] 🔍 DEBUG: Trend: State=-1, Hurst=0.734, Slope=-0.00004
21/01/2025 02:15:44.203 | Info | [02:15:44] 🔍 DEBUG: FD: 1.464, Status: STABLE
21/01/2025 02:15:44.203 | Info | [02:15:44] ℹ️ INFO: 🔥 TIP SIGNAL - Raw: 10649.50, Z-Score: 2.86
21/01/2025 02:17:31.504 | Info | [02:17:31] ⚠️ WARN: ⚠️ TOXIC MARKET - Score: 3.00
21/01/2025 02:17:32.203 | Info | [02:17:32] ⚠️ WARN: ⚠️ TOXIC MARKET - Score: 3.00
21/01/2025 02:17:32.901 | Info | [02:17:32] ⚠️ WARN: ⚠️ TOXIC MARKET - Score: 3.00
21/01/2025 02:17:33.202 | Info | [02:17:33] ⚠️ WARN: ⚠️ TOXIC MARKET - Score: 3.00
21/01/2025 02:17:34.504 | Info | [02:17:34] ⚠️ WARN: ⚠️ TOXIC MARKET - Score: 3.00
21/01/2025 02:17:35.802 | Info | [02:17:35] ⚠️ WARN: ⚠️ TOXIC MARKET - Score: 3.00
21/01/2025 02:17:37.302 | Info | [02:17:37] ⚠️ WARN: ⚠️ TOXIC MARKET - Score: 3.00
21/01/2025 02:17:37.902 | Info | [02:17:37] ⚠️ WARN: ⚠️ TOXIC MARKET - Score: 3.00
21/01/2025 02:17:38.202 | Info | [02:17:38] ⚠️ WARN: ⚠️ TOXIC MARKET - Score: 3.00
21/01/2025 02:17:39.104 | Info | [02:17:39] ⚠️ WARN: ⚠️ TOXIC MARKET - Score: 3.00
21/01/2025 02:17:39.502 | Info | [02:17:39] ⚠️ WARN: ⚠️ TOXIC MARKET - Score: 3.00
21/01/2025 02:17:39.802 | Info | [02:17:39] ⚠️ WARN: ⚠️ TOXIC MARKET - Score: 3.00
21/01/2025 02:17:40.802 | Info | [02:17:40] ⚠️ WARN: ⚠️ TOXIC MARKET - Score: 3.00
21/01/2025 02:17:41.202 | Info | [02:17:41] ⚠️ WARN: ⚠️ TOXIC MARKET - Score: 3.00
21/01/2025 02:17:42.501 | Info | [02:17:42] ⚠️ WARN: ⚠️ TOXIC MARKET - Score: 3.00
21/01/2025 02:17:42.801 | Info | [02:17:42] ⚠️ WARN: ⚠️ TOXIC MARKET - Score: 3.00
21/01/2025 02:17:43.403 | Info | [02:17:43] ⚠️ WARN: ⚠️ TOXIC MARKET - Score: 3.00
21/01/2025 02:17:44.403 | Info | [02:17:44] ⚠️ WARN: ⚠️ TOXIC MARKET - Score: 3.00
21/01/2025 02:17:46.003 | Info | [02:17:46] ⚠️ WARN: ⚠️ TOXIC MARKET - Score: 3.00
21/01/2025 02:17:47.002 | Info | [02:17:47] ⚠️ WARN: ⚠️ TOXIC MARKET - Score: 3.00
21/01/2025 02:17:47.302 | Info | [02:17:47] ⚠️ WARN: ⚠️ TOXIC MARKET - Score: 3.00
21/01/2025 02:17:47.903 | Info | [02:17:47] ⚠️ WARN: ⚠️ TOXIC MARKET - Score: 3.00
21/01/2025 02:17:49.204 | Info | [02:17:49] ⚠️ WARN: ⚠️ TOXIC MARKET - Score: 3.00
21/01/2025 02:17:49.604 | Info | [02:17:49] ⚠️ WARN: ⚠️ TOXIC MARKET - Score: 3.00
21/01/2025 02:17:50.602 | Info | [02:17:50] ⚠️ WARN: ⚠️ TOXIC MARKET - Score: 3.00
21/01/2025 02:17:51.205 | Info | [02:17:51] ⚠️ WARN: ⚠️ TOXIC MARKET - Score: 3.00
21/01/2025 02:17:54.201 | Info | [02:17:54] ⚠️ WARN: ⚠️ TOXIC MARKET - Score: 3.00
21/01/2025 02:17:55.202 | Info | [02:17:55] ⚠️ WARN: ⚠️ TOXIC MARKET - Score: 3.00
21/01/2025 02:17:55.805 | Info | [02:17:55] ⚠️ WARN: ⚠️ TOXIC MARKET - Score: 3.00
21/01/2025 02:17:57.404 | Info | [02:17:57] ⚠️ WARN: ⚠️ TOXIC MARKET - Score: 3.00
21/01/2025 02:18:00.602 | Info | [02:18:00] ⚠️ WARN: ⚠️ TOXIC MARKET - Score: 3.00
21/01/2025 02:18:02.404 | Info | [02:18:02] ⚠️ WARN: ⚠️ TOXIC MARKET - Score: 3.00
21/01/2025 02:18:03.102 | Info | [02:18:03] ⚠️ WARN: ⚠️ TOXIC MARKET - Score: 3.00
21/01/2025 02:18:09.104 | Info | [02:18:09] ⚠️ WARN: ⚠️ TOXIC MARKET - Score: 3.00
21/01/2025 02:18:12.001 | Info | [02:18:12] ⚠️ WARN: ⚠️ TOXIC MARKET - Score: 3.00
21/01/2025 02:18:13.000 | Info | [02:18:13] ⚠️ WARN: ⚠️ TOXIC MARKET - Score: 3.00
21/01/2025 02:18:21.602 | Info | [02:18:21] ⚠️ WARN: ⚠️ TOXIC MARKET - Score: 3.00
21/01/2025 02:18:21.903 | Info | [02:18:21] ⚠️ WARN: ⚠️ TOXIC MARKET - Score: 3.00
21/01/2025 02:18:32.403 | Info | [02:18:32] ⚠️ WARN: ⚠️ TOXIC MARKET - Score: 3.00
21/01/2025 02:19:24.501 | Info | [02:19:24] ⚠️ WARN: ⚠️ TOXIC MARKET - Score: 3.00
21/01/2025 02:19:25.502 | Info | [02:19:25] ⚠️ WARN: ⚠️ TOXIC MARKET - Score: 3.00
21/01/2025 02:19:28.302 | Info | [02:19:28] ⚠️ WARN: ⚠️ TOXIC MARKET - Score: 3.00
21/01/2025 02:19:56.404 | Info | [02:19:56] ⚠️ WARN: ⚠️ TOXIC MARKET - Score: 3.00
21/01/2025 02:19:58.602 | Info | [02:19:58] ⚠️ WARN: ⚠️ TOXIC MARKET - Score: 3.00
21/01/2025 02:19:59.000 | Info | [02:19:59] ⚠️ WARN: ⚠️ TOXIC MARKET - Score: 3.00
21/01/2025 02:19:59.602 | Info | [02:19:59] ⚠️ WARN: ⚠️ TOXIC MARKET - Score: 3.00
21/01/2025 02:20:00.206 | Info | [02:20:00] ⚠️ WARN: ⚠️ TOXIC MARKET - Score: 3.00
21/01/2025 02:20:05.207 | Info | [02:20:05] ⚠️ WARN: ⚠️ TOXIC MARKET - Score: 3.00
21/01/2025 02:20:06.203 | Info | [02:20:06] ⚠️ WARN: ⚠️ TOXIC MARKET - Score: 3.00
21/01/2025 02:20:06.503 | Info | [02:20:06] ⚠️ WARN: ⚠️ TOXIC MARKET - Score: 3.00
21/01/2025 02:20:08.801 | Info | [02:20:08] ⚠️ WARN: ⚠️ TOXIC MARKET - Score: 3.00
21/01/2025 02:20:10.401 | Info | [02:20:10] ⚠️ WARN: ⚠️ TOXIC MARKET - Score: 3.00
21/01/2025 02:21:24.202 | Info | [02:21:24] ⚠️ WARN: ⚠️ TOXIC MARKET - Score: 3.00
21/01/2025 02:22:06.401 | Info | [02:22:06] ⚠️ WARN: ⚠️ TOXIC MARKET - Score: 3.00
21/01/2025 02:24:50.902 | Info | [02:24:50] ⚠️ WARN: ⚠️ TOXIC MARKET - Score: 3.00
21/01/2025 02:27:05.403 | Info | [02:27:05] ⚠️ WARN: ⚠️ TOXIC MARKET - Score: 3.00
21/01/2025 02:28:15.402 | Info | [02:28:15] ⚠️ WARN: ⚠️ TOXIC MARKET - Score: 3.00
21/01/2025 02:28:15.704 | Info | [02:28:15] ⚠️ WARN: ⚠️ TOXIC MARKET - Score: 3.00
21/01/2025 02:28:16.005 | Info | [02:28:16] ⚠️ WARN: ⚠️ TOXIC MARKET - Score: 3.00
21/01/2025 02:28:20.103 | Info | [02:28:20] ⚠️ WARN: ⚠️ TOXIC MARKET - Score: 3.00
21/01/2025 02:28:20.703 | Info | [02:28:20] ⚠️ WARN: ⚠️ TOXIC MARKET - Score: 3.00
21/01/2025 02:28:21.402 | Info | [02:28:21] ⚠️ WARN: ⚠️ TOXIC MARKET - Score: 3.00
21/01/2025 02:28:21.802 | Info | [02:28:21] ⚠️ WARN: ⚠️ TOXIC MARKET - Score: 3.00
21/01/2025 02:28:22.405 | Info | [02:28:22] ⚠️ WARN: ⚠️ TOXIC MARKET - Score: 3.00
21/01/2025 02:28:26.405 | Info | [02:28:26] ⚠️ WARN: ⚠️ TOXIC MARKET - Score: 3.00
21/01/2025 02:28:27.405 | Info | [02:28:27] ⚠️ WARN: ⚠️ TOXIC MARKET - Score: 3.00
21/01/2025 02:28:27.706 | Info | [02:28:27] ⚠️ WARN: ⚠️ TOXIC MARKET - Score: 3.00
21/01/2025 02:28:28.401 | Info | [02:28:28] ⚠️ WARN: ⚠️ TOXIC MARKET - Score: 3.00
21/01/2025 02:28:34.402 | Info | [02:28:34] ⚠️ WARN: ⚠️ TOXIC MARKET - Score: 3.00
21/01/2025 02:28:35.003 | Info | [02:28:35] ⚠️ WARN: ⚠️ TOXIC MARKET - Score: 3.00
21/01/2025 02:28:35.304 | Info | [02:28:35] ⚠️ WARN: ⚠️ TOXIC MARKET - Score: 3.00
21/01/2025 02:28:39.505 | Info | [02:28:39] ⚠️ WARN: ⚠️ TOXIC MARKET - Score: 3.00
21/01/2025 02:28:43.921 | Info | [02:28:43] ⚠️ WARN: ⚠️ TOXIC MARKET - Score: 3.00
21/01/2025 02:28:44.302 | Info | [02:28:44] ⚠️ WARN: ⚠️ TOXIC MARKET - Score: 3.00
21/01/2025 02:28:45.000 | Info | [02:28:45] ⚠️ WARN: ⚠️ TOXIC MARKET - Score: 3.00
21/01/2025 02:28:46.902 | Info | [02:28:46] ⚠️ WARN: ⚠️ TOXIC MARKET - Score: 3.00
21/01/2025 02:28:48.503 | Info | [02:28:48] ⚠️ WARN: ⚠️ TOXIC MARKET - Score: 3.00
21/01/2025 02:28:50.102 | Info | [02:28:50] ⚠️ WARN: ⚠️ TOXIC MARKET - Score: 3.00
21/01/2025 02:28:50.402 | Info | [02:28:50] ⚠️ WARN: ⚠️ TOXIC MARKET - Score: 3.00
21/01/2025 02:28:51.102 | Info | [02:28:51] ⚠️ WARN: ⚠️ TOXIC MARKET - Score: 3.00
21/01/2025 02:28:54.306 | Info | [02:28:54] ⚠️ WARN: ⚠️ TOXIC MARKET - Score: 3.00
21/01/2025 02:28:54.702 | Info | [02:28:54] ⚠️ WARN: ⚠️ TOXIC MARKET - Score: 3.00
21/01/2025 02:28:56.001 | Info | [02:28:56] ⚠️ WARN: ⚠️ TOXIC MARKET - Score: 3.00
21/01/2025 02:28:56.301 | Info | [02:28:56] ⚠️ WARN: ⚠️ TOXIC MARKET - Score: 3.00
21/01/2025 02:28:57.305 | Info | [02:28:57] ⚠️ WARN: ⚠️ TOXIC MARKET - Score: 3.00
21/01/2025 02:28:58.302 | Info | [02:28:58] ⚠️ WARN: ⚠️ TOXIC MARKET - Score: 3.00
21/01/2025 02:28:58.602 | Info | [02:28:58] ⚠️ WARN: ⚠️ TOXIC MARKET - Score: 3.00
21/01/2025 02:28:58.902 | Info | [02:28:58] ⚠️ WARN: ⚠️ TOXIC MARKET - Score: 3.00
21/01/2025 02:28:59.202 | Info | [02:28:59] ⚠️ WARN: ⚠️ TOXIC MARKET - Score: 3.00
21/01/2025 02:28:59.902 | Info | [02:28:59] ⚠️ WARN: ⚠️ TOXIC MARKET - Score: 3.00
21/01/2025 02:29:01.203 | Info | [02:29:01] ⚠️ WARN: ⚠️ TOXIC MARKET - Score: 3.00
21/01/2025 02:29:02.901 | Info | [02:29:02] ⚠️ WARN: ⚠️ TOXIC MARKET - Score: 3.00
21/01/2025 02:29:03.201 | Info | [02:29:03] ⚠️ WARN: ⚠️ TOXIC MARKET - Score: 3.00
21/01/2025 02:29:04.405 | Info | [02:29:04] ⚠️ WARN: ⚠️ TOXIC MARKET - Score: 3.00
21/01/2025 02:29:04.707 | Info | [02:29:04] ⚠️ WARN: ⚠️ TOXIC MARKET - Score: 3.00
21/01/2025 02:29:06.401 | Info | [02:29:06] ⚠️ WARN: ⚠️ TOXIC MARKET - Score: 3.00
21/01/2025 02:29:06.701 | Info | [02:29:06] ⚠️ WARN: ⚠️ TOXIC MARKET - Score: 3.00
21/01/2025 02:29:07.902 | Info | [02:29:07] ⚠️ WARN: ⚠️ TOXIC MARKET - Score: 3.00
21/01/2025 02:29:08.502 | Info | [02:29:08] ⚠️ WARN: ⚠️ TOXIC MARKET - Score: 3.00
21/01/2025 02:29:09.105 | Info | [02:29:09] ⚠️ WARN: ⚠️ TOXIC MARKET - Score: 3.00
21/01/2025 02:29:09.705 | Info | [02:29:09] ⚠️ WARN: ⚠️ TOXIC MARKET - Score: 3.00
21/01/2025 02:30:34.601 | Info | [02:30:34] ⚠️ WARN: ⚠️ TOXIC MARKET - Score: 3.00
21/01/2025 02:30:36.203 | Info | [02:30:36] 🔍 DEBUG: Trend: State=-1, Hurst=0.730, Slope=-0.00003
21/01/2025 02:30:36.203 | Info | [02:30:36] 🔍 DEBUG: FD: 1.497, Status: STABLE
21/01/2025 02:31:54.104 | Info | [02:31:54] ⚠️ WARN: ⚠️ TOXIC MARKET - Score: 3.00
21/01/2025 02:32:58.202 | Info | [02:32:58] ⚠️ WARN: ⚠️ TOXIC MARKET - Score: 3.00
21/01/2025 02:32:59.202 | Info | [02:32:59] ⚠️ WARN: ⚠️ TOXIC MARKET - Score: 3.00
21/01/2025 02:33:00.410 | Info | [02:33:00] ⚠️ WARN: ⚠️ TOXIC MARKET - Score: 3.00
21/01/2025 02:33:00.801 | Info | [02:33:00] ⚠️ WARN: ⚠️ TOXIC MARKET - Score: 3.00
21/01/2025 02:33:05.103 | Info | [02:33:05] ⚠️ WARN: ⚠️ TOXIC MARKET - Score: 3.00
21/01/2025 02:33:55.202 | Info | [02:33:55] ⚠️ WARN: ⚠️ TOXIC MARKET - Score: 3.00
21/01/2025 02:33:55.902 | Info | [02:33:55] ⚠️ WARN: ⚠️ TOXIC MARKET - Score: 3.00
21/01/2025 02:33:59.203 | Info | [02:33:59] ⚠️ WARN: ⚠️ TOXIC MARKET - Score: 3.00
21/01/2025 02:33:59.803 | Info | [02:33:59] ⚠️ WARN: ⚠️ TOXIC MARKET - Score: 3.00
21/01/2025 02:34:00.104 | Info | [02:34:00] ⚠️ WARN: ⚠️ TOXIC MARKET - Score: 3.00
21/01/2025 02:34:00.421 | Info | [02:34:00] ⚠️ WARN: ⚠️ TOXIC MARKET - Score: 3.00
21/01/2025 02:34:00.802 | Info | [02:34:00] ⚠️ WARN: ⚠️ TOXIC MARKET - Score: 3.00
21/01/2025 02:34:01.105 | Info | [02:34:01] ⚠️ WARN: ⚠️ TOXIC MARKET - Score: 3.00
21/01/2025 02:34:01.501 | Info | [02:34:01] ⚠️ WARN: ⚠️ TOXIC MARKET - Score: 3.00
21/01/2025 02:34:02.404 | Info | [02:34:02] ⚠️ WARN: ⚠️ TOXIC MARKET - Score: 3.00
21/01/2025 02:34:02.802 | Info | [02:34:02] ⚠️ WARN: ⚠️ TOXIC MARKET - Score: 3.00
21/01/2025 02:34:04.101 | Info | [02:34:04] ⚠️ WARN: ⚠️ TOXIC MARKET - Score: 3.00
21/01/2025 02:34:04.402 | Info | [02:34:04] ⚠️ WARN: ⚠️ TOXIC MARKET - Score: 3.00
21/01/2025 02:34:04.703 | Info | [02:34:04] ⚠️ WARN: ⚠️ TOXIC MARKET - Score: 3.00
21/01/2025 02:34:05.906 | Info | [02:34:05] ⚠️ WARN: ⚠️ TOXIC MARKET - Score: 3.00
21/01/2025 02:34:06.301 | Info | [02:34:06] ⚠️ WARN: ⚠️ TOXIC MARKET - Score: 3.00
21/01/2025 02:34:06.601 | Info | [02:34:06] ⚠️ WARN: ⚠️ TOXIC MARKET - Score: 3.00
21/01/2025 02:34:08.303 | Info | [02:34:08] ⚠️ WARN: ⚠️ TOXIC MARKET - Score: 3.00
21/01/2025 02:34:08.703 | Info | [02:34:08] ⚠️ WARN: ⚠️ TOXIC MARKET - Score: 3.00
21/01/2025 02:34:09.004 | Info | [02:34:09] ⚠️ WARN: ⚠️ TOXIC MARKET - Score: 3.00
21/01/2025 02:35:47.502 | Info | [02:35:47] ⚠️ WARN: ⚠️ TOXIC MARKET - Score: 3.00
21/01/2025 02:35:49.006 | Info | [02:35:49] ⚠️ WARN: ⚠️ TOXIC MARKET - Score: 3.00
21/01/2025 02:35:49.403 | Info | [02:35:49] ⚠️ WARN: ⚠️ TOXIC MARKET - Score: 3.00
21/01/2025 02:36:45.806 | Info | [02:36:45] ⚠️ WARN: ⚠️ TOXIC MARKET - Score: 3.00
21/01/2025 02:38:18.902 | Info | [02:38:18] ⚠️ WARN: ⚠️ TOXIC MARKET - Score: 3.00
21/01/2025 02:38:23.902 | Info | [02:38:23] ⚠️ WARN: ⚠️ TOXIC MARKET - Score: 3.00
21/01/2025 02:38:24.202 | Info | [02:38:24] ⚠️ WARN: ⚠️ TOXIC MARKET - Score: 3.00
21/01/2025 02:38:27.402 | Info | [02:38:27] ⚠️ WARN: ⚠️ TOXIC MARKET - Score: 3.00
21/01/2025 02:38:30.802 | Info | [02:38:30] ⚠️ WARN: ⚠️ TOXIC MARKET - Score: 3.00
21/01/2025 02:38:32.202 | Info | [02:38:32] ⚠️ WARN: ⚠️ TOXIC MARKET - Score: 3.00
21/01/2025 02:38:34.612 | Info | [02:38:34] ⚠️ WARN: ⚠️ TOXIC MARKET - Score: 3.00
21/01/2025 02:38:35.303 | Info | [02:38:35] ⚠️ WARN: ⚠️ TOXIC MARKET - Score: 3.00
21/01/2025 02:38:37.302 | Info | [02:38:37] ⚠️ WARN: ⚠️ TOXIC MARKET - Score: 3.00
21/01/2025 02:38:40.802 | Info | [02:38:40] ⚠️ WARN: ⚠️ TOXIC MARKET - Score: 3.00
21/01/2025 02:38:44.404 | Info | [02:38:44] ⚠️ WARN: ⚠️ TOXIC MARKET - Score: 3.00
21/01/2025 02:38:44.709 | Info | [02:38:44] ⚠️ WARN: ⚠️ TOXIC MARKET - Score: 3.00
21/01/2025 02:41:46.203 | Info | [02:41:46] ⚠️ WARN: ⚠️ TOXIC MARKET - Score: 3.00
21/01/2025 02:41:47.518 | Info | [02:41:47] ⚠️ WARN: ⚠️ TOXIC MARKET - Score: 3.00
21/01/2025 02:41:49.902 | Info | [02:41:49] ⚠️ WARN: ⚠️ TOXIC MARKET - Score: 3.00
21/01/2025 02:41:51.804 | Info | [02:41:51] ⚠️ WARN: ⚠️ TOXIC MARKET - Score: 3.00
21/01/2025 02:41:54.302 | Info | [02:41:54] ⚠️ WARN: ⚠️ TOXIC MARKET - Score: 3.00
21/01/2025 02:41:54.603 | Info | [02:41:54] ⚠️ WARN: ⚠️ TOXIC MARKET - Score: 3.00
21/01/2025 02:41:58.104 | Info | [02:41:58] ⚠️ WARN: ⚠️ TOXIC MARKET - Score: 3.00
21/01/2025 02:41:58.801 | Info | [02:41:58] ⚠️ WARN: ⚠️ TOXIC MARKET - Score: 3.00
21/01/2025 02:41:59.101 | Info | [02:41:59] ⚠️ WARN: ⚠️ TOXIC MARKET - Score: 3.00
21/01/2025 02:41:59.404 | Info | [02:41:59] ⚠️ WARN: ⚠️ TOXIC MARKET - Score: 3.00
21/01/2025 02:42:00.403 | Info | [02:42:00] ⚠️ WARN: ⚠️ TOXIC MARKET - Score: 3.00
21/01/2025 02:42:00.801 | Info | [02:42:00] ⚠️ WARN: ⚠️ TOXIC MARKET - Score: 3.00
21/01/2025 02:42:01.702 | Info | [02:42:01] ⚠️ WARN: ⚠️ TOXIC MARKET - Score: 3.00
21/01/2025 02:44:32.802 | Info | [02:44:32] ⚠️ WARN: ⚠️ TOXIC MARKET - Score: 3.00
21/01/2025 02:44:33.702 | Info | [02:44:33] ⚠️ WARN: ⚠️ TOXIC MARKET - Score: 3.00
21/01/2025 02:44:37.003 | Info | [02:44:37] ⚠️ WARN: ⚠️ TOXIC MARKET - Score: 3.00
21/01/2025 02:44:38.404 | Info | [02:44:38] ⚠️ WARN: ⚠️ TOXIC MARKET - Score: 3.00
21/01/2025 02:44:40.303 | Info | [02:44:40] ⚠️ WARN: ⚠️ TOXIC MARKET - Score: 3.00
21/01/2025 02:44:40.607 | Info | [02:44:40] ⚠️ WARN: ⚠️ TOXIC MARKET - Score: 3.00
21/01/2025 02:44:41.301 | Info | [02:44:41] ⚠️ WARN: ⚠️ TOXIC MARKET - Score: 3.00
21/01/2025 02:44:42.604 | Info | [02:44:42] ⚠️ WARN: ⚠️ TOXIC MARKET - Score: 3.00
21/01/2025 02:44:43.205 | Info | [02:44:43] ⚠️ WARN: ⚠️ TOXIC MARKET - Score: 3.00
21/01/2025 02:44:43.505 | Info | [02:44:43] ⚠️ WARN: ⚠️ TOXIC MARKET - Score: 3.00
21/01/2025 02:44:43.902 | Info | [02:44:43] ⚠️ WARN: ⚠️ TOXIC MARKET - Score: 3.00
21/01/2025 02:44:44.203 | Info | [02:44:44] ⚠️ WARN: ⚠️ TOXIC MARKET - Score: 3.00
21/01/2025 02:44:44.503 | Info | [02:44:44] ⚠️ WARN: ⚠️ TOXIC MARKET - Score: 3.00
21/01/2025 02:44:44.803 | Info | [02:44:44] ⚠️ WARN: ⚠️ TOXIC MARKET - Score: 3.00
21/01/2025 02:44:45.201 | Info | [02:44:45] ⚠️ WARN: ⚠️ TOXIC MARKET - Score: 3.00
21/01/2025 02:44:45.501 | Info | [02:44:45] ⚠️ WARN: ⚠️ TOXIC MARKET - Score: 3.00
21/01/2025 02:44:45.801 | Info | [02:44:45] ⚠️ WARN: ⚠️ TOXIC MARKET - Score: 3.00
21/01/2025 02:44:59.102 | Info | [02:44:59] ⚠️ WARN: ⚠️ TOXIC MARKET - Score: 3.00
21/01/2025 02:44:59.402 | Info | [02:44:59] ⚠️ WARN: ⚠️ TOXIC MARKET - Score: 3.00
21/01/2025 02:44:59.702 | Info | [02:44:59] ⚠️ WARN: ⚠️ TOXIC MARKET - Score: 3.00
21/01/2025 02:45:00.402 | Info | [02:45:00] ⚠️ WARN: ⚠️ TOXIC MARKET - Score: 3.00
21/01/2025 02:45:02.000 | Info | [02:45:02] ⚠️ WARN: ⚠️ TOXIC MARKET - Score: 3.00
21/01/2025 02:45:03.904 | Info | [02:45:03] ⚠️ WARN: ⚠️ TOXIC MARKET - Score: 3.00
21/01/2025 02:45:04.204 | Info | [02:45:04] ⚠️ WARN: ⚠️ TOXIC MARKET - Score: 3.00
21/01/2025 02:45:04.903 | Info | [02:45:04] ⚠️ WARN: ⚠️ TOXIC MARKET - Score: 3.00
21/01/2025 02:45:05.203 | Info | [02:45:05] ⚠️ WARN: ⚠️ TOXIC MARKET - Score: 3.00
21/01/2025 02:45:05.506 | Info | [02:45:05] ⚠️ WARN: ⚠️ TOXIC MARKET - Score: 3.00
21/01/2025 02:45:05.902 | Info | [02:45:05] ⚠️ WARN: ⚠️ TOXIC MARKET - Score: 3.00
21/01/2025 02:45:06.506 | Info | [02:45:06] ⚠️ WARN: ⚠️ TOXIC MARKET - Score: 3.00
21/01/2025 02:45:07.206 | Info | [02:45:07] ⚠️ WARN: ⚠️ TOXIC MARKET - Score: 3.00
21/01/2025 02:45:07.602 | Info | [02:45:07] ⚠️ WARN: ⚠️ TOXIC MARKET - Score: 3.00
21/01/2025 02:45:07.902 | Info | [02:45:07] ⚠️ WARN: ⚠️ TOXIC MARKET - Score: 3.00
21/01/2025 02:45:08.203 | Info | [02:45:08] ⚠️ WARN: ⚠️ TOXIC MARKET - Score: 3.00
21/01/2025 02:45:09.502 | Info | [02:45:09] ⚠️ WARN: ⚠️ TOXIC MARKET - Score: 3.00
21/01/2025 02:45:11.722 | Info | [02:45:11] ⚠️ WARN: ⚠️ TOXIC MARKET - Score: 3.00
21/01/2025 02:45:12.103 | Info | [02:45:12] ⚠️ WARN: ⚠️ TOXIC MARKET - Score: 3.00
21/01/2025 02:45:17.201 | Info | [02:45:17] ⚠️ WARN: ⚠️ TOXIC MARKET - Score: 3.00
21/01/2025 02:45:18.405 | Info | [02:45:18] ⚠️ WARN: ⚠️ TOXIC MARKET - Score: 3.00
21/01/2025 02:45:20.402 | Info | [02:45:20] ⚠️ WARN: ⚠️ TOXIC MARKET - Score: 3.00
21/01/2025 02:45:22.601 | Info | [02:45:22] ⚠️ WARN: ⚠️ TOXIC MARKET - Score: 3.00
21/01/2025 02:45:24.802 | Info | [02:45:24] ⚠️ WARN: ⚠️ TOXIC MARKET - Score: 3.00
21/01/2025 02:45:25.403 | Info | [02:45:25] ⚠️ WARN: ⚠️ TOXIC MARKET - Score: 3.00
21/01/2025 02:45:29.305 | Info | [02:45:29] ⚠️ WARN: ⚠️ TOXIC MARKET - Score: 3.00
21/01/2025 02:45:29.703 | Info | [02:45:29] ⚠️ WARN: ⚠️ TOXIC MARKET - Score: 3.00
21/01/2025 02:45:30.921 | Info | [02:45:30] ⚠️ WARN: ⚠️ TOXIC MARKET - Score: 3.00
21/01/2025 02:45:31.301 | Info | [02:45:31] ⚠️ WARN: ⚠️ TOXIC MARKET - Score: 3.00
21/01/2025 02:45:31.902 | Info | [02:45:31] ⚠️ WARN: ⚠️ TOXIC MARKET - Score: 3.00
21/01/2025 02:45:33.204 | Info | [02:45:33] ⚠️ WARN: ⚠️ TOXIC MARKET - Score: 3.00
21/01/2025 02:45:34.202 | Info | [02:45:34] ⚠️ WARN: ⚠️ TOXIC MARKET - Score: 3.00
21/01/2025 02:45:35.205 | Info | [02:45:35] ⚠️ WARN: ⚠️ TOXIC MARKET - Score: 3.00
21/01/2025 02:45:36.205 | Info | [02:45:36] ⚠️ WARN: ⚠️ TOXIC MARKET - Score: 3.00
21/01/2025 02:45:39.201 | Info | [02:45:39] ⚠️ WARN: ⚠️ TOXIC MARKET - Score: 3.00
21/01/2025 02:45:39.502 | Info | [02:45:39] ⚠️ WARN: ⚠️ TOXIC MARKET - Score: 3.00
21/01/2025 02:45:40.205 | Info | [02:45:40] ⚠️ WARN: ⚠️ TOXIC MARKET - Score: 3.00
21/01/2025 02:45:40.601 | Info | [02:45:40] ⚠️ WARN: ⚠️ TOXIC MARKET - Score: 3.00
21/01/2025 02:45:41.805 | Info | [02:45:41] ⚠️ WARN: ⚠️ TOXIC MARKET - Score: 3.00
21/01/2025 02:45:42.106 | Info | [02:45:42] ⚠️ WARN: ⚠️ TOXIC MARKET - Score: 3.00
21/01/2025 02:45:42.501 | Info | [02:45:42] ⚠️ WARN: ⚠️ TOXIC MARKET - Score: 3.00
21/01/2025 02:45:43.103 | Info | [02:45:43] ⚠️ WARN: ⚠️ TOXIC MARKET - Score: 3.00
21/01/2025 02:45:43.403 | Info | [02:45:43] ⚠️ WARN: ⚠️ TOXIC MARKET - Score: 3.00
21/01/2025 02:45:44.201 | Info | [02:45:44] ⚠️ WARN: ⚠️ TOXIC MARKET - Score: 3.00
21/01/2025 02:46:12.604 | Info | [02:46:12] 🔍 DEBUG: Trend: State=-1, Hurst=0.760, Slope=-0.00003
21/01/2025 02:46:12.604 | Info | [02:46:12] 🔍 DEBUG: FD: 1.515, Status: STABLE
21/01/2025 02:48:20.602 | Info | [02:48:20] ⚠️ WARN: ⚠️ TOXIC MARKET - Score: 3.00
21/01/2025 02:48:20.902 | Info | [02:48:20] ⚠️ WARN: ⚠️ TOXIC MARKET - Score: 3.00
21/01/2025 02:48:21.601 | Info | [02:48:21] ⚠️ WARN: ⚠️ TOXIC MARKET - Score: 3.00
21/01/2025 02:48:21.902 | Info | [02:48:21] ⚠️ WARN: ⚠️ TOXIC MARKET - Score: 3.00
21/01/2025 02:48:22.902 | Info | [02:48:22] ⚠️ WARN: ⚠️ TOXIC MARKET - Score: 3.00
21/01/2025 02:48:23.503 | Info | [02:48:23] ⚠️ WARN: ⚠️ TOXIC MARKET - Score: 3.00
21/01/2025 02:48:23.804 | Info | [02:48:23] ⚠️ WARN: ⚠️ TOXIC MARKET - Score: 3.00
21/01/2025 02:48:24.202 | Info | [02:48:24] ⚠️ WARN: ⚠️ TOXIC MARKET - Score: 3.00
[...]
22/01/2025 13:26:13.806 | Info | [13:26:13] ⚠️ WARN: ⚠️ TOXIC MARKET - Score: 3.00
22/01/2025 13:26:15.110 | Info | [13:26:15] ⚠️ WARN: ⚠️ TOXIC MARKET - Score: 3.00
22/01/2025 13:26:16.806 | Info | [13:26:16] ⚠️ WARN: ⚠️ TOXIC MARKET - Score: 3.00
22/01/2025 13:26:17.505 | Info | [13:26:17] ⚠️ WARN: ⚠️ TOXIC MARKET - Score: 3.00
22/01/2025 13:26:18.107 | Info | [13:26:18] ⚠️ WARN: ⚠️ TOXIC MARKET - Score: 3.00
22/01/2025 13:26:18.505 | Info | [13:26:18] ⚠️ WARN: ⚠️ TOXIC MARKET - Score: 3.00
22/01/2025 13:26:18.805 | Info | [13:26:18] ⚠️ WARN: ⚠️ TOXIC MARKET - Score: 3.00
22/01/2025 13:26:19.405 | Info | [13:26:19] ⚠️ WARN: ⚠️ TOXIC MARKET - Score: 3.00
22/01/2025 13:26:19.705 | Info | [13:26:19] ⚠️ WARN: ⚠️ TOXIC MARKET - Score: 3.00
22/01/2025 13:26:20.610 | Info | [13:26:20] ⚠️ WARN: ⚠️ TOXIC MARKET - Score: 3.00
22/01/2025 13:26:21.000 | Info | [13:26:21] ⚠️ WARN: ⚠️ TOXIC MARKET - Score: 3.00
22/01/2025 13:26:21.607 | Info | [13:26:21] ⚠️ WARN: ⚠️ TOXIC MARKET - Score: 3.00
22/01/2025 13:26:21.908 | Info | [13:26:21] ⚠️ WARN: ⚠️ TOXIC MARKET - Score: 3.00
22/01/2025 13:26:22.305 | Info | [13:26:22] ⚠️ WARN: ⚠️ TOXIC MARKET - Score: 3.00
22/01/2025 13:26:23.805 | Info | [13:26:23] ⚠️ WARN: ⚠️ TOXIC MARKET - Score: 3.00
22/01/2025 13:26:25.405 | Info | [13:26:25] ⚠️ WARN: ⚠️ TOXIC MARKET - Score: 3.00
22/01/2025 13:26:26.006 | Info | [13:26:26] ⚠️ WARN: ⚠️ TOXIC MARKET - Score: 3.00
22/01/2025 13:26:26.307 | Info | [13:26:26] ⚠️ WARN: ⚠️ TOXIC MARKET - Score: 3.00
22/01/2025 13:26:27.306 | Info | [13:26:27] ⚠️ WARN: ⚠️ TOXIC MARKET - Score: 3.00
22/01/2025 13:26:28.906 | Info | [13:26:28] ⚠️ WARN: ⚠️ TOXIC MARKET - Score: 3.00
22/01/2025 13:26:29.206 | Info | [13:26:29] ⚠️ WARN: ⚠️ TOXIC MARKET - Score: 3.00
22/01/2025 13:26:29.507 | Info | [13:26:29] ⚠️ WARN: ⚠️ TOXIC MARKET - Score: 3.00
22/01/2025 13:26:29.905 | Info | [13:26:29] ⚠️ WARN: ⚠️ TOXIC MARKET - Score: 3.00
22/01/2025 13:26:30.506 | Info | [13:26:30] ⚠️ WARN: ⚠️ TOXIC MARKET - Score: 3.00
22/01/2025 13:26:45.805 | Info | [13:26:45] ⚠️ WARN: ⚠️ TOXIC MARKET - Score: 3.00
22/01/2025 13:26:47.409 | Info | [13:26:47] ⚠️ WARN: ⚠️ TOXIC MARKET - Score: 3.00
22/01/2025 13:26:47.807 | Info | [13:26:47] ⚠️ WARN: ⚠️ TOXIC MARKET - Score: 3.00
22/01/2025 13:26:48.107 | Info | [13:26:48] ⚠️ WARN: ⚠️ TOXIC MARKET - Score: 3.00
22/01/2025 13:26:48.509 | Info | [13:26:48] ⚠️ WARN: ⚠️ TOXIC MARKET - Score: 3.00
22/01/2025 13:26:49.705 | Info | [13:26:49] ⚠️ WARN: ⚠️ TOXIC MARKET - Score: 3.00
22/01/2025 13:26:50.006 | Info | [13:26:50] ⚠️ WARN: ⚠️ TOXIC MARKET - Score: 3.00
22/01/2025 13:26:51.309 | Info | [13:26:51] ⚠️ WARN: ⚠️ TOXIC MARKET - Score: 3.00
22/01/2025 13:26:51.617 | Info | [13:26:51] ⚠️ WARN: ⚠️ TOXIC MARKET - Score: 3.00
22/01/2025 13:26:52.000 | Info | [13:26:52] ⚠️ WARN: ⚠️ TOXIC MARKET - Score: 3.00
22/01/2025 13:26:52.304 | Info | [13:26:52] ⚠️ WARN: ⚠️ TOXIC MARKET - Score: 3.00
22/01/2025 13:26:52.606 | Info | [13:26:52] ⚠️ WARN: ⚠️ TOXIC MARKET - Score: 3.00
22/01/2025 13:26:52.908 | Info | [13:26:52] ⚠️ WARN: ⚠️ TOXIC MARKET - Score: 3.00
22/01/2025 13:26:53.305 | Info | [13:26:53] ⚠️ WARN: ⚠️ TOXIC MARKET - Score: 3.00
22/01/2025 13:26:53.605 | Info | [13:26:53] ⚠️ WARN: ⚠️ TOXIC MARKET - Score: 3.00
22/01/2025 13:26:53.909 | Info | [13:26:53] ⚠️ WARN: ⚠️ TOXIC MARKET - Score: 3.00
22/01/2025 13:26:54.606 | Info | [13:26:54] ⚠️ WARN: ⚠️ TOXIC MARKET - Score: 3.00
22/01/2025 13:26:55.206 | Info | [13:26:55] ⚠️ WARN: ⚠️ TOXIC MARKET - Score: 3.00
22/01/2025 13:26:55.518 | Info | [13:26:55] ⚠️ WARN: ⚠️ TOXIC MARKET - Score: 3.00
22/01/2025 13:26:57.504 | Info | [13:26:57] ⚠️ WARN: ⚠️ TOXIC MARKET - Score: 3.00
22/01/2025 13:26:57.804 | Info | [13:26:57] ⚠️ WARN: ⚠️ TOXIC MARKET - Score: 3.00
22/01/2025 13:26:58.106 | Info | [13:26:58] ⚠️ WARN: ⚠️ TOXIC MARKET - Score: 3.00
22/01/2025 13:27:00.706 | Info | [13:27:00] ⚠️ WARN: ⚠️ TOXIC MARKET - Score: 3.00
22/01/2025 13:27:01.104 | Info | [13:27:01] ⚠️ WARN: ⚠️ TOXIC MARKET - Score: 3.00
22/01/2025 13:27:01.805 | Info | [13:27:01] ⚠️ WARN: ⚠️ TOXIC MARKET - Score: 3.00
22/01/2025 13:27:02.407 | Info | [13:27:02] ⚠️ WARN: ⚠️ TOXIC MARKET - Score: 3.00
22/01/2025 13:27:03.405 | Info | [13:27:03] ⚠️ WARN: ⚠️ TOXIC MARKET - Score: 3.00
22/01/2025 13:27:06.706 | Info | [13:27:06] ⚠️ WARN: ⚠️ TOXIC MARKET - Score: 3.00
22/01/2025 13:27:07.008 | Info | [13:27:07] ⚠️ WARN: ⚠️ TOXIC MARKET - Score: 3.00
22/01/2025 13:27:07.405 | Info | [13:27:07] ⚠️ WARN: ⚠️ TOXIC MARKET - Score: 3.00
22/01/2025 13:27:10.605 | Info | [13:27:10] ⚠️ WARN: ⚠️ TOXIC MARKET - Score: 3.00
22/01/2025 13:27:11.806 | Info | [13:27:11] ⚠️ WARN: ⚠️ TOXIC MARKET - Score: 3.00
22/01/2025 13:27:14.311 | Info | [13:27:14] ⚠️ WARN: ⚠️ TOXIC MARKET - Score: 3.00
22/01/2025 13:27:14.705 | Info | [13:27:14] ⚠️ WARN: ⚠️ TOXIC MARKET - Score: 3.00
22/01/2025 13:27:15.006 | Info | [13:27:15] ⚠️ WARN: ⚠️ TOXIC MARKET - Score: 3.00
22/01/2025 13:27:15.309 | Info | [13:27:15] ⚠️ WARN: ⚠️ TOXIC MARKET - Score: 3.00
22/01/2025 13:27:16.005 | Info | [13:27:16] ⚠️ WARN: ⚠️ TOXIC MARKET - Score: 3.00
22/01/2025 13:27:16.605 | Info | [13:27:16] ⚠️ WARN: ⚠️ TOXIC MARKET - Score: 3.00
22/01/2025 13:27:16.905 | Info | [13:27:16] ⚠️ WARN: ⚠️ TOXIC MARKET - Score: 3.00
22/01/2025 13:27:18.604 | Info | [13:27:18] ⚠️ WARN: ⚠️ TOXIC MARKET - Score: 3.00
22/01/2025 13:27:22.708 | Info | [13:27:22] ⚠️ WARN: ⚠️ TOXIC MARKET - Score: 3.00
22/01/2025 13:27:23.708 | Info | [13:27:23] ⚠️ WARN: ⚠️ TOXIC MARKET - Score: 3.00
22/01/2025 13:27:24.309 | Info | [13:27:24] ⚠️ WARN: ⚠️ TOXIC MARKET - Score: 3.00
22/01/2025 13:27:24.622 | Info | [13:27:24] ⚠️ WARN: ⚠️ TOXIC MARKET - Score: 3.00
22/01/2025 13:27:27.509 | Info | [13:27:27] ⚠️ WARN: ⚠️ TOXIC MARKET - Score: 3.00
22/01/2025 13:27:27.906 | Info | [13:27:27] ⚠️ WARN: ⚠️ TOXIC MARKET - Score: 3.00
22/01/2025 13:27:28.209 | Info | [13:27:28] ⚠️ WARN: ⚠️ TOXIC MARKET - Score: 3.00
22/01/2025 13:27:29.206 | Info | [13:27:29] ⚠️ WARN: ⚠️ TOXIC MARKET - Score: 3.00
22/01/2025 13:27:29.806 | Info | [13:27:29] ⚠️ WARN: ⚠️ TOXIC MARKET - Score: 3.00
22/01/2025 13:27:30.204 | Info | [13:27:30] ⚠️ WARN: ⚠️ TOXIC MARKET - Score: 3.00
22/01/2025 13:27:30.506 | Info | [13:27:30] ⚠️ WARN: ⚠️ TOXIC MARKET - Score: 3.00
22/01/2025 13:27:30.807 | Info | [13:27:30] ⚠️ WARN: ⚠️ TOXIC MARKET - Score: 3.00
22/01/2025 13:27:31.108 | Info | [13:27:31] ⚠️ WARN: ⚠️ TOXIC MARKET - Score: 3.00
22/01/2025 13:27:31.409 | Info | [13:27:31] ⚠️ WARN: ⚠️ TOXIC MARKET - Score: 3.00
22/01/2025 13:27:33.006 | Info | [13:27:33] ⚠️ WARN: ⚠️ TOXIC MARKET - Score: 3.00
22/01/2025 13:27:33.610 | Info | [13:27:33] ⚠️ WARN: ⚠️ TOXIC MARKET - Score: 3.00
22/01/2025 13:27:34.306 | Info | [13:27:34] ⚠️ WARN: ⚠️ TOXIC MARKET - Score: 3.00
22/01/2025 13:27:34.922 | Info | [13:27:34] ⚠️ WARN: ⚠️ TOXIC MARKET - Score: 3.00
22/01/2025 13:27:36.906 | Info | [13:27:36] ⚠️ WARN: ⚠️ TOXIC MARKET - Score: 3.00
22/01/2025 13:27:37.206 | Info | [13:27:37] ⚠️ WARN: ⚠️ TOXIC MARKET - Score: 3.00
22/01/2025 13:27:39.206 | Info | [13:27:39] ⚠️ WARN: ⚠️ TOXIC MARKET - Score: 3.00
22/01/2025 13:27:39.507 | Info | [13:27:39] ⚠️ WARN: ⚠️ TOXIC MARKET - Score: 3.00
22/01/2025 13:27:41.106 | Info | [13:27:41] ⚠️ WARN: ⚠️ TOXIC MARKET - Score: 3.00
22/01/2025 13:27:45.307 | Info | [13:27:45] ⚠️ WARN: ⚠️ TOXIC MARKET - Score: 3.00
22/01/2025 13:27:45.705 | Info | [13:27:45] ⚠️ WARN: ⚠️ TOXIC MARKET - Score: 3.00
22/01/2025 13:27:47.907 | Info | [13:27:47] ⚠️ WARN: ⚠️ TOXIC MARKET - Score: 3.00
22/01/2025 13:27:48.209 | Info | [13:27:48] ⚠️ WARN: ⚠️ TOXIC MARKET - Score: 3.00
22/01/2025 13:27:48.906 | Info | [13:27:48] ⚠️ WARN: ⚠️ TOXIC MARKET - Score: 3.00
22/01/2025 13:27:49.207 | Info | [13:27:49] ⚠️ WARN: ⚠️ TOXIC MARKET - Score: 3.00
22/01/2025 13:27:49.907 | Info | [13:27:49] ⚠️ WARN: ⚠️ TOXIC MARKET - Score: 3.00
22/01/2025 13:27:51.000 | Info | [13:27:51] ⚠️ WARN: ⚠️ TOXIC MARKET - Score: 3.00
22/01/2025 13:27:51.906 | Info | [13:27:51] ⚠️ WARN: ⚠️ TOXIC MARKET - Score: 3.00
22/01/2025 13:27:52.209 | Info | [13:27:52] ⚠️ WARN: ⚠️ TOXIC MARKET - Score: 3.00
22/01/2025 13:27:53.207 | Info | [13:27:53] ⚠️ WARN: ⚠️ TOXIC MARKET - Score: 3.00
22/01/2025 13:27:54.207 | Info | [13:27:54] ⚠️ WARN: ⚠️ TOXIC MARKET - Score: 3.00
22/01/2025 13:27:54.520 | Info | [13:27:54] ⚠️ WARN: ⚠️ TOXIC MARKET - Score: 3.00
22/01/2025 13:27:55.207 | Info | [13:27:55] ⚠️ WARN: ⚠️ TOXIC MARKET - Score: 3.00
22/01/2025 13:27:55.507 | Info | [13:27:55] ⚠️ WARN: ⚠️ TOXIC MARKET - Score: 3.00
22/01/2025 13:27:56.409 | Info | [13:27:56] ⚠️ WARN: ⚠️ TOXIC MARKET - Score: 3.00
22/01/2025 13:27:56.709 | Info | [13:27:56] ⚠️ WARN: ⚠️ TOXIC MARKET - Score: 3.00
22/01/2025 13:27:57.709 | Info | [13:27:57] ⚠️ WARN: ⚠️ TOXIC MARKET - Score: 3.00
22/01/2025 13:27:59.007 | Info | [13:27:59] ⚠️ WARN: ⚠️ TOXIC MARKET - Score: 3.00
22/01/2025 13:27:59.308 | Info | [13:27:59] ⚠️ WARN: ⚠️ TOXIC MARKET - Score: 3.00
22/01/2025 13:27:59.608 | Info | [13:27:59] ⚠️ WARN: ⚠️ TOXIC MARKET - Score: 3.00
22/01/2025 13:27:59.910 | Info | [13:27:59] ⚠️ WARN: ⚠️ TOXIC MARKET - Score: 3.00
22/01/2025 13:28:00.605 | Info | [13:28:00] ⚠️ WARN: ⚠️ TOXIC MARKET - Score: 3.00
22/01/2025 13:28:03.806 | Info | [13:28:03] ⚠️ WARN: ⚠️ TOXIC MARKET - Score: 3.00
22/01/2025 13:28:04.108 | Info | [13:28:04] ⚠️ WARN: ⚠️ TOXIC MARKET - Score: 3.00
22/01/2025 13:28:04.421 | Info | [13:28:04] ⚠️ WARN: ⚠️ TOXIC MARKET - Score: 3.00
22/01/2025 13:28:05.109 | Info | [13:28:05] ⚠️ WARN: ⚠️ TOXIC MARKET - Score: 3.00
22/01/2025 13:28:05.505 | Info | [13:28:05] ⚠️ WARN: ⚠️ TOXIC MARKET - Score: 3.00
22/01/2025 13:28:05.806 | Info | [13:28:05] ⚠️ WARN: ⚠️ TOXIC MARKET - Score: 3.00
22/01/2025 13:28:06.106 | Info | [13:28:06] ⚠️ WARN: ⚠️ TOXIC MARKET - Score: 3.00
22/01/2025 13:28:06.407 | Info | [13:28:06] ⚠️ WARN: ⚠️ TOXIC MARKET - Score: 3.00
22/01/2025 13:28:06.707 | Info | [13:28:06] ⚠️ WARN: ⚠️ TOXIC MARKET - Score: 3.00
22/01/2025 13:28:07.105 | Info | [13:28:07] ⚠️ WARN: ⚠️ TOXIC MARKET - Score: 3.00
22/01/2025 13:28:11.010 | Info | [13:28:11] ⚠️ WARN: ⚠️ TOXIC MARKET - Score: 3.00
22/01/2025 13:28:11.406 | Info | [13:28:11] ⚠️ WARN: ⚠️ TOXIC MARKET - Score: 3.00
22/01/2025 13:28:20.305 | Info | [13:28:20] ⚠️ WARN: ⚠️ TOXIC MARKET - Score: 3.00
22/01/2025 13:28:20.606 | Info | [13:28:20] ⚠️ WARN: ⚠️ TOXIC MARKET - Score: 3.00
22/01/2025 13:28:21.206 | Info | [13:28:21] ⚠️ WARN: ⚠️ TOXIC MARKET - Score: 3.00
22/01/2025 13:28:21.506 | Info | [13:28:21] ⚠️ WARN: ⚠️ TOXIC MARKET - Score: 3.00
22/01/2025 13:28:22.606 | Info | [13:28:22] ⚠️ WARN: ⚠️ TOXIC MARKET - Score: 3.00
22/01/2025 13:28:22.907 | Info | [13:28:22] ⚠️ WARN: ⚠️ TOXIC MARKET - Score: 3.00
22/01/2025 13:28:23.229 | Info | [13:28:23] ⚠️ WARN: ⚠️ TOXIC MARKET - Score: 3.00
22/01/2025 13:28:24.904 | Info | [13:28:24] ⚠️ WARN: ⚠️ TOXIC MARKET - Score: 3.00
22/01/2025 13:28:25.207 | Info | [13:28:25] ⚠️ WARN: ⚠️ TOXIC MARKET - Score: 3.00
22/01/2025 13:28:30.606 | Info | [13:28:30] ⚠️ WARN: ⚠️ TOXIC MARKET - Score: 3.00
22/01/2025 13:28:30.906 | Info | [13:28:30] ⚠️ WARN: ⚠️ TOXIC MARKET - Score: 3.00
22/01/2025 13:28:31.305 | Info | [13:28:31] ⚠️ WARN: ⚠️ TOXIC MARKET - Score: 3.00
22/01/2025 13:28:32.517 | Info | [13:28:32] ⚠️ WARN: ⚠️ TOXIC MARKET - Score: 3.00
22/01/2025 13:28:32.906 | Info | [13:28:32] ⚠️ WARN: ⚠️ TOXIC MARKET - Score: 3.00
22/01/2025 13:28:33.905 | Info | [13:28:33] ⚠️ WARN: ⚠️ TOXIC MARKET - Score: 3.00
22/01/2025 13:29:33.108 | Info | [13:29:33] ⚠️ WARN: ⚠️ TOXIC MARKET - Score: 3.00
22/01/2025 13:29:33.724 | Info | [13:29:33] ⚠️ WARN: ⚠️ TOXIC MARKET - Score: 3.00
22/01/2025 13:29:46.006 | Info | [13:29:46] ⚠️ WARN: ⚠️ TOXIC MARKET - Score: 3.00
22/01/2025 13:29:46.307 | Info | [13:29:46] ⚠️ WARN: ⚠️ TOXIC MARKET - Score: 3.00
22/01/2025 13:29:46.608 | Info | [13:29:46] ⚠️ WARN: ⚠️ TOXIC MARKET - Score: 3.00
22/01/2025 13:29:46.909 | Info | [13:29:46] ⚠️ WARN: ⚠️ TOXIC MARKET - Score: 3.00
22/01/2025 13:29:47.906 | Info | [13:29:47] ⚠️ WARN: ⚠️ TOXIC MARKET - Score: 3.00
22/01/2025 13:29:48.206 | Info | [13:29:48] ⚠️ WARN: ⚠️ TOXIC MARKET - Score: 3.00
22/01/2025 13:29:49.106 | Info | [13:29:49] ⚠️ WARN: ⚠️ TOXIC MARKET - Score: 3.00
22/01/2025 13:29:49.406 | Info | [13:29:49] ⚠️ WARN: ⚠️ TOXIC MARKET - Score: 3.00
22/01/2025 13:29:50.406 | Info | [13:29:50] ⚠️ WARN: ⚠️ TOXIC MARKET - Score: 3.00
22/01/2025 13:29:50.706 | Info | [13:29:50] ⚠️ WARN: ⚠️ TOXIC MARKET - Score: 3.00
22/01/2025 13:29:51.006 | Info | [13:29:51] ⚠️ WARN: ⚠️ TOXIC MARKET - Score: 3.00
22/01/2025 13:29:52.307 | Info | [13:29:52] ⚠️ WARN: ⚠️ TOXIC MARKET - Score: 3.00
22/01/2025 13:29:54.105 | Info | [13:29:54] ⚠️ WARN: ⚠️ TOXIC MARKET - Score: 3.00
22/01/2025 13:29:55.606 | Info | [13:29:55] ⚠️ WARN: ⚠️ TOXIC MARKET - Score: 3.00
22/01/2025 13:29:55.906 | Info | [13:29:55] ⚠️ WARN: ⚠️ TOXIC MARKET - Score: 3.00
22/01/2025 13:29:56.209 | Info | [13:29:56] ⚠️ WARN: ⚠️ TOXIC MARKET - Score: 3.00
22/01/2025 13:29:56.509 | Info | [13:29:56] ⚠️ WARN: ⚠️ TOXIC MARKET - Score: 3.00
22/01/2025 13:29:56.509 | Info | [13:29:56] 🔍 DEBUG: Trend: State=1, Hurst=0.643, Slope=0.00005
22/01/2025 13:29:56.509 | Info | [13:29:56] 🔍 DEBUG: FD: 1.548, Status: STABLE
22/01/2025 13:29:56.905 | Info | [13:29:56] ⚠️ WARN: ⚠️ TOXIC MARKET - Score: 3.00
22/01/2025 13:29:57.608 | Info | [13:29:57] ⚠️ WARN: ⚠️ TOXIC MARKET - Score: 3.00
22/01/2025 13:29:58.605 | Info | [13:29:58] ⚠️ WARN: ⚠️ TOXIC MARKET - Score: 3.00
22/01/2025 13:29:59.506 | Info | [13:29:59] ⚠️ WARN: ⚠️ TOXIC MARKET - Score: 3.00
22/01/2025 13:30:00.109 | Info | [13:30:00] ⚠️ WARN: ⚠️ TOXIC MARKET - Score: 3.00
22/01/2025 13:30:00.410 | Info | [13:30:00] ⚠️ WARN: ⚠️ TOXIC MARKET - Score: 3.00
22/01/2025 13:30:01.110 | Info | [13:30:01] ⚠️ WARN: ⚠️ TOXIC MARKET - Score: 3.00
22/01/2025 13:30:02.809 | Info | [13:30:02] ⚠️ WARN: ⚠️ TOXIC MARKET - Score: 3.00
22/01/2025 13:30:03.206 | Info | [13:30:03] ⚠️ WARN: ⚠️ TOXIC MARKET - Score: 3.00
22/01/2025 13:30:03.809 | Info | [13:30:03] ⚠️ WARN: ⚠️ TOXIC MARKET - Score: 3.00
22/01/2025 13:30:04.506 | Info | [13:30:04] ⚠️ WARN: ⚠️ TOXIC MARKET - Score: 3.00
22/01/2025 13:30:05.206 | Info | [13:30:05] ⚠️ WARN: ⚠️ TOXIC MARKET - Score: 3.00
22/01/2025 13:30:07.107 | Info | [13:30:07] ⚠️ WARN: ⚠️ TOXIC MARKET - Score: 3.00
22/01/2025 13:30:07.806 | Info | [13:30:07] ⚠️ WARN: ⚠️ TOXIC MARKET - Score: 3.00
22/01/2025 13:30:08.106 | Info | [13:30:08] ⚠️ WARN: ⚠️ TOXIC MARKET - Score: 3.00
22/01/2025 13:30:09.104 | Info | [13:30:09] ⚠️ WARN: ⚠️ TOXIC MARKET - Score: 3.00
22/01/2025 13:30:09.706 | Info | [13:30:09] ⚠️ WARN: ⚠️ TOXIC MARKET - Score: 3.00
22/01/2025 13:30:10.806 | Info | [13:30:10] ⚠️ WARN: ⚠️ TOXIC MARKET - Score: 3.00
22/01/2025 13:30:11.109 | Info | [13:30:11] ⚠️ WARN: ⚠️ TOXIC MARKET - Score: 3.00
22/01/2025 13:30:30.000 | Info | [13:30:30] ⚠️ WARN: ⚠️ TOXIC MARKET - Score: 3.00
22/01/2025 13:30:30.304 | Info | [13:30:30] ⚠️ WARN: ⚠️ TOXIC MARKET - Score: 3.00
22/01/2025 13:30:30.907 | Info | [13:30:30] ⚠️ WARN: ⚠️ TOXIC MARKET - Score: 3.00
22/01/2025 13:30:31.207 | Info | [13:30:31] ⚠️ WARN: ⚠️ TOXIC MARKET - Score: 3.00
22/01/2025 13:30:31.509 | Info | [13:30:31] ⚠️ WARN: ⚠️ TOXIC MARKET - Score: 3.00
22/01/2025 13:30:35.108 | Info | [13:30:35] ⚠️ WARN: ⚠️ TOXIC MARKET - Score: 3.00
22/01/2025 13:30:35.506 | Info | [13:30:35] ⚠️ WARN: ⚠️ TOXIC MARKET - Score: 3.00
22/01/2025 13:30:35.907 | Info | [13:30:35] ⚠️ WARN: ⚠️ TOXIC MARKET - Score: 3.00
22/01/2025 13:30:36.209 | Info | [13:30:36] ⚠️ WARN: ⚠️ TOXIC MARKET - Score: 3.00
22/01/2025 13:30:36.606 | Info | [13:30:36] ⚠️ WARN: ⚠️ TOXIC MARKET - Score: 3.00
22/01/2025 13:30:37.206 | Info | [13:30:37] ⚠️ WARN: ⚠️ TOXIC MARKET - Score: 3.00
22/01/2025 13:30:38.108 | Info | [13:30:38] ⚠️ WARN: ⚠️ TOXIC MARKET - Score: 3.00
22/01/2025 13:30:38.805 | Info | [13:30:38] ⚠️ WARN: ⚠️ TOXIC MARKET - Score: 3.00
22/01/2025 13:30:39.107 | Info | [13:30:39] ⚠️ WARN: ⚠️ TOXIC MARKET - Score: 3.00
22/01/2025 13:30:39.505 | Info | [13:30:39] ⚠️ WARN: ⚠️ TOXIC MARKET - Score: 3.00
22/01/2025 13:30:40.207 | Info | [13:30:40] ⚠️ WARN: ⚠️ TOXIC MARKET - Score: 3.00
22/01/2025 13:30:43.807 | Info | [13:30:43] ⚠️ WARN: ⚠️ TOXIC MARKET - Score: 3.00
22/01/2025 13:30:47.205 | Info | [13:30:47] ⚠️ WARN: ⚠️ TOXIC MARKET - Score: 3.00
22/01/2025 13:30:48.107 | Info | [13:30:48] ⚠️ WARN: ⚠️ TOXIC MARKET - Score: 3.00
22/01/2025 13:30:48.806 | Info | [13:30:48] ⚠️ WARN: ⚠️ TOXIC MARKET - Score: 3.00
22/01/2025 13:30:49.106 | Info | [13:30:49] ⚠️ WARN: ⚠️ TOXIC MARKET - Score: 3.00
22/01/2025 13:30:49.710 | Info | [13:30:49] ⚠️ WARN: ⚠️ TOXIC MARKET - Score: 3.00
22/01/2025 13:30:50.105 | Info | [13:30:50] ⚠️ WARN: ⚠️ TOXIC MARKET - Score: 3.00
22/01/2025 13:30:50.407 | Info | [13:30:50] ⚠️ WARN: ⚠️ TOXIC MARKET - Score: 3.00
22/01/2025 13:30:51.009 | Info | [13:30:51] ⚠️ WARN: ⚠️ TOXIC MARKET - Score: 3.00
22/01/2025 13:30:51.407 | Info | [13:30:51] ⚠️ WARN: ⚠️ TOXIC MARKET - Score: 3.00
22/01/2025 13:30:52.310 | Info | [13:30:52] ⚠️ WARN: ⚠️ TOXIC MARKET - Score: 3.00
22/01/2025 13:30:53.007 | Info | [13:30:53] ⚠️ WARN: ⚠️ TOXIC MARKET - Score: 3.00
22/01/2025 13:30:53.309 | Info | [13:30:53] ⚠️ WARN: ⚠️ TOXIC MARKET - Score: 3.00
22/01/2025 13:30:53.609 | Info | [13:30:53] ⚠️ WARN: ⚠️ TOXIC MARKET - Score: 3.00
22/01/2025 13:31:01.106 | Info | [13:31:01] ⚠️ WARN: ⚠️ TOXIC MARKET - Score: 3.00
22/01/2025 13:31:01.406 | Info | [13:31:01] ⚠️ WARN: ⚠️ TOXIC MARKET - Score: 3.00
22/01/2025 13:31:04.210 | Info | [13:31:04] ⚠️ WARN: ⚠️ TOXIC MARKET - Score: 3.00
22/01/2025 13:32:19.806 | Info | [13:32:19] ⚠️ WARN: ⚠️ TOXIC MARKET - Score: 3.00
22/01/2025 13:32:20.409 | Info | [13:32:20] ⚠️ WARN: ⚠️ TOXIC MARKET - Score: 3.00
22/01/2025 13:32:21.309 | Info | [13:32:21] ⚠️ WARN: ⚠️ TOXIC MARKET - Score: 3.00
22/01/2025 13:32:21.611 | Info | [13:32:21] ⚠️ WARN: ⚠️ TOXIC MARKET - Score: 3.00
22/01/2025 13:32:24.207 | Info | [13:32:24] ⚠️ WARN: ⚠️ TOXIC MARKET - Score: 3.00
22/01/2025 13:34:00.607 | Info | [13:34:00] ⚠️ WARN: ⚠️ TOXIC MARKET - Score: 3.00
22/01/2025 13:34:56.808 | Info | [13:34:56] ⚠️ WARN: ⚠️ TOXIC MARKET - Score: 3.00
